* Deltares, D-Flow FM Version 1.2.40.60360M, Feb 13 2019, 17:40:24
* Source: https://svn.oss.deltares.nl/repos/delft3d/trunk/
* File creation date: 16:16:53, 03-04-2019
** INFO   : Opened file : unstruc.hlp
** INFO   : Closed file : unstruc.hlp
** INFO   : Opened file : ISOCOLOUR.hls
** INFO   : Using Local FileISOCOLOUR.hls
** INFO   : Closed file : ISOCOLOUR.hls
** INFO   : Opened file : ISOCOLOUR.hls
** INFO   : Using Local FileISOCOLOUR.hls
** INFO   : Closed file : ISOCOLOUR.hls
** INFO   :  MAXIMUM NUMBER OF LINKS         :            2
** INFO   :  MAXIMUM NUMBER OF NODES         :            0
** INFO   :  RESOLUTION GRAPHICS SCREEN      :         1600         990
** INFO   :  RESOLUTION TEXT     SCREEN      :          200          66
** INFO   :  NUMBER OF COLOURS AVAILABLE     :          256
** DEBUG  :            0  0.1000020      NOD(KMAX)
** DEBUG  :            6  0.7000140      XK (KMAX), YK (KMAX), ZK (KMAX), KC (KMAX), NMK (KMAX), RNOD(KMAX)
** INFO   : Load MDU-file                    (*.mdu)
** INFO   : Opened file : flowfm.mdu
** INFO   : Closed file : flowfm.mdu
** DEBUG  :            7  0.1000020      NOD(KMAX)
** DEBUG  :           12  0.7000140      XK (KMAX), YK (KMAX), ZK (KMAX), KC (KMAX), NMK (KMAX), RNOD(KMAX)
** DEBUG  :           12  1.4400000E-03  xsp(maxspl, maxsplen)
** DEBUG  :           12  1.4400000E-03  ysp(maxspl, maxsplen)
** DEBUG  :           12  1.4400000E-03  xsp2(maxspl, maxsplen)
** DEBUG  :           12  1.4400000E-03  ysp2(maxspl, maxsplen)
 Until here copy of previous diagnostic file
** WARNING: readMDUFile: [numerics] jaorgsethu=1 was in file, but not used. Check possible typo.
** WARNING: readMDUFile: [physics] effectspiral=0 was in file, but not used. Check possible typo.
** WARNING: readMDUFile: [output] wrishp_enc=0 was in file, but not used. Check possible typo.
** WARNING: readMDUFile: [output] waterlevelclasses=0.0 was in file, but not used. Check possible typo.
** WARNING: readMDUFile: [output] waterdepthclasses=0.0 was in file, but not used. Check possible typo.
** INFO   : Network UGRID-File: No 1D-Mesh Present, Skipped 1D
** INFO   : Opened file : FlowFM_obs.xyn
** INFO   : Closed file : FlowFM_obs.xyn
** INFO   : Start of the computation time loop
** INFO   : Initializing flow model geometry...
** DEBUG  : Opened 'FlowFM_net.nc' as #     65536.
** WARNING: Could not read net cells from NetCDF file 'FlowFM_net.nc' (is not critical). Details follow:
** DEBUG  : NetCDF error: NetCDF: Invalid dimension ID or name (nNetElem)
** DEBUG  :           12  1.0080000E-03  lnn(numl)
** DEBUG  :           12  2.0160000E-03  lne(2,numl)
** DEBUG  :           12  1.0080000E-03  xe (nx)
** DEBUG  :           12  1.0080000E-03  ye (nx)
** DEBUG  :           12  1.0080000E-03  xyen(2, nx)
** DEBUG  :           13  1.7136000E-02  kce(nx), ke(nx), kez(nx), keu(nx), kes(nx), ketm(nx), kesd(nx), keuxy(nx), ket(nx), ken(nx), ke1d2d(nx), keg(nx), ked(nx), kep(nx), kedb(nx), keklep(nx), kevalv(nx), kegs(nx), kegen(nx), itpez(nx), itpenz(nx), itpeu(nx) , itpenu(nx) , kew(nx), ftpet(nx)
** DEBUG  :           13  1.0080000E-03  ketr(nx,1)
** DEBUG  :           13  1.0080000E-03  kesf(1,nx)
** INFO   : Opened file : Boundary01.pli
** INFO   : Closed file : Boundary01.pli
** INFO   : boundary: 'Boundary01.pli' opened 10 cells.
** INFO   : waterlevelbnd Boundary01.pli      10 nr of open bndcells
** INFO   : Opened file : Boundary02.pli
** INFO   : Closed file : Boundary02.pli
** INFO   : boundary: 'Boundary02.pli' opened 10 cells.
** INFO   : waterlevelbnd Boundary02.pli      10 nr of open bndcells
** DEBUG  :           13  4.1359998E-03  nd(ndx), bl(ndx), bai(ndx), bai_mor(ndx), ba_mor(ndx), kcs(ndx)
** DEBUG  :           13  1.8960000E-03  ln   (2,lnx)
** DEBUG  :           13  1.8960000E-03  lncn (2,lnx)
** DEBUG  :           13  1.8960000E-03  bob  (2,lnx)
** DEBUG  :           13  2.8440000E-03  xu(lnx), yu(lnx) , blu(lnx)
** DEBUG  :           13  1.0080000E-03  ln2lne (nex)
** DEBUG  :           13  1.0080000E-03  lne2ln (nex)
** DEBUG  : addexternalboundarypoints: added 0 bnd points for SOBEK1D-FM2D connections.
** INFO   : setbedlevelfromextfile: Using bedlevel as specified in net-file.
** DEBUG  :           13  1.5360001E-03  wcnxy(3,numk)
** DEBUG  :           13  1.0200000E-03  walls(17,nw)
** DEBUG  :           13  1.0340000E-03  wcxy (2,ndx)
** DEBUG  :           13  1.8960000E-03  wcL  (2,Lnx)
** DEBUG  :           13  1.9360000E-03  banf(mxban)
** DEBUG  :           13  1.9360000E-03  nban(4,mxban)
** DEBUG  :           13  1.9360000E-03  rr(mxban), nr(mxban)
** DEBUG  :           13  1.9360000E-03  banh (mxban)
** DEBUG  :           13  1.9360000E-03  nbanh(4,mxban)
** INFO   : Done initializing flow model geometry.
** DEBUG  :           13  1.0340000E-03  s0  (ndx) , s1  (ndx)
** DEBUG  :           13  1.0340000E-03  a0  (ndx) , a1  (ndx)
** DEBUG  :           13  1.0340000E-03  hs  (ndx) , s00 (ndx)
** DEBUG  :           13  2.2747999E-02  ucx (ndkx) , ucy (ndkx)
** DEBUG  :           14  2.2747999E-02  uqcx(ndkx) , uqcy(ndkx)
** DEBUG  :           14  2.2747999E-02  ucxq(ndkx) , ucyq(ndkx)
** DEBUG  :           14  2.2747999E-02  qin (ndkx) , vih (ndkx)
** DEBUG  :           14  2.2747999E-02  dvxc(ndkx) , dvyc(ndkx)
** DEBUG  :           14  1.1374000E-02  squ (ndkx)
** DEBUG  :           14  1.1374000E-02  sqi (ndkx)
** DEBUG  :           14  1.1374000E-02  vol0(ndkx)
** DEBUG  :           14  1.1374000E-02  vol1(ndkx)
** DEBUG  :           15  1.1374000E-02  vol1_f(ndkx)
** DEBUG  :           15  1.1374000E-02  dtcell(ndkx)
** DEBUG  :           15  1.1374000E-02  ucz (ndkx)
** DEBUG  :           15  1.1374000E-02  rho (ndkx)
** DEBUG  :           15  1.1374000E-02  ww1 (ndkx)
** DEBUG  :           15  1.1374000E-02  qw  (ndkx)
** DEBUG  :           15  1.1374000E-02  zws (ndkx)
** DEBUG  :           15  1.1374000E-02  zws0(ndkx)
** DEBUG  :           15  1.1374000E-02  workx (ndkx)
** DEBUG  :           15  1.1374000E-02  worky (ndkx)
** DEBUG  :           16  1.9908000E-02  work0 (0:max(kmx,1),max(ndx,lnx))
** DEBUG  :           16  1.8959999E-02  work1 (max(kmx,1),max(ndx,lnx))
** DEBUG  :           16  2.0856000E-02  turkin0  (Lnkx)
** DEBUG  :           16  2.0856000E-02  turkin1  (Lnkx)
** DEBUG  :           16  2.0856000E-02  tureps0  (Lnkx)
** DEBUG  :           16  2.0856000E-02  tureps1  (Lnkx)
** DEBUG  :           17  2.0856000E-02  vicwwu   (Lnkx)
** DEBUG  :           17  1.1374000E-02  vicwws   (ndkx)
** DEBUG  :           17  1.1374000E-02  turkinepsws (2,ndkx)
** DEBUG  :           17  1.1374000E-02  sqcu(Ndkx)
** DEBUG  :           17  1.1374000E-02  tqcu(Ndkx)
** DEBUG  :           17  1.1374000E-02  eqcu(Ndkx)
** DEBUG  :           17  2.0856000E-02  u0   (lnkx)
** DEBUG  :           17  2.0856000E-02  u1   (lnkx)
** DEBUG  :           18  2.0856000E-02  q1   (lnkx)
** DEBUG  :           18  2.0856000E-02  qa   (lnkx)
** DEBUG  :           18  2.0856000E-02  v    (lnkx)
** DEBUG  :           18  2.0856000E-02  ucxu (lnkx)
** DEBUG  :           18  2.0856000E-02  ucyu (lnkx)
** DEBUG  :           18  2.0856000E-02  hu   (lnkx)
** DEBUG  :           19  2.0856000E-02  huvli(lnkx)
** DEBUG  :           19  2.0856000E-02  au   (lnkx)
** DEBUG  :           19  2.0856000E-02  viu  (lnkx)
** DEBUG  :           19  2.0856000E-02  vicLu(lnkx)
** DEBUG  :           19  2.0856000E-02  suu  (lnkx)
** DEBUG  :           19  2.0856000E-02  advi (lnkx)
** DEBUG  :           20  2.0856000E-02  adve (lnkx)
** DEBUG  :           20  2.0856000E-02  plotlin(max(lnkx,ndkx))
** DEBUG  :           20  1.1374000E-02  sa1 (ndkx)
** DEBUG  :           20  1.1374000E-02  rich(lnkx)
** INFO   : Finding flow nodes...
** INFO   : done in      0.00100 sec.
** INFO   : Start initializing external forcings...
** INFO   : Done initializing external forcings.
** DEBUG  :           20  2.0740000E-03  ccr(0:ijstck)
** DEBUG  :           20  2.0740000E-03  bbl(0:ijstck)
** DEBUG  :           20  1.0340000E-03  bbr(nodtot), ddr(nodtot)
** DEBUG  :           20  2.5849999E-03  d0(nodtot), zkr(nodtot),pk(0:nodtot), apk(nodtot), rk(nodtot)
** INFO   : nogauss , nocg :            308           209
** DEBUG  :           20  1.1799000E-02  iao(nn+1)
** DEBUG  :           20  5.1110000E-03  ao(na)
** DEBUG  :           20  1.2540000E-02  wk(nwk)
** INFO   : Finding flow nodes...
** INFO   : done in      0.00600 sec.
** INFO   : Modelinit finished   at: 16:18:05, 03-04-2019
** INFO   : ** Model initialization was successful **
** INFO   : * Active Model definition:
# Generated on 16:18:05, 03-04-2019
# Deltares, D-Flow FM Version 1.2.40.60360M, Feb 13 2019, 17:40:24
# Source:https://svn.oss.deltares.nl/repos/delft3d/trunk/

[model]
Program                           = D-Flow FM
Version                           = 1.2.40.60360M
MDUFormatVersion                  = 1.06                # File format version (do not edit this)
AutoStart                         = 0                   # Autostart simulation after loading MDU (0: no, 1: autostart, 2: autostartstop)
ModelSpecific                     =                                                                 # Optional 'model specific ID', to enable certain custom runtime function calls (instead of via MDU name).

[geometry]
NetFile                           = flowfm_net.nc       # Unstructured grid file *_net.nc
GridEnclosureFile                 =                     # Enclosure file to clip outer parts from the grid *.pol
BedlevelFile                      =                     # Bedlevels points file e.g. *.xyz, only needed for bedlevtype not equal 3
DryPointsFile                     =                     # Dry points file *.xyz (third column dummy z values), or dry areas polygon file *.pol (third column 1/-1: inside/outside)
WaterLevIniFile                   =                     # Initial water levels sample file *.xyz
LandBoundaryFile                  =                     # Land boundaries file *.ldb, used for visualization
ThinDamFile                       =                     # Polyline file *_thd.pli, containing thin dams
Cutcelllist                       =                     # File with names of cutcell polygons, e.g. cutcellpolygons.lst
FixedWeirFile                     =                     # Polyline file *_fxw.pliz, containing fixed weirs with rows x, y, crest level, left ground level, right ground level
PillarFile                        =                     # Polyline file *_pillar.pliz, containing four colums with x, y, diameter and Cd coefficient
Gulliesfile                       =                     # Polyline file *_gul.pliz, containing lowest bed level along talweg x, y, z level
Roofsfile                         =                     # Polyline file *_rof.pliz, containing roofgutter heights x, y, z level
VertplizFile                      =                     # Vertical layering file *_vlay.pliz with rows x, y, Z, first Z, nr of layers, second Z, layer type
ProflocFile                       =                     # Channel profile location file *_proflocation.xyz with rows x, y, z, profile number ref
ProfdefFile                       =                     # Channel profile definition file *_profdefinition.def with definition for all profile numbers
ProfdefxyzFile                    =                     # Channel profile definition file _profdefinition.def with definition for all profile numbers
Uniformwidth1D                    = 2.                  # Uniform width for channel profiles not specified by profloc
Uniformheight1D                   = 3.                  # Uniform height for channel profiles not specified by profloc
Uniformtyp1Dstreetinlets          = -2                  # Uniform type street inlets
Uniformtyp1Droofgutterpipes       = -2                  # Uniform type roof gutter pipes
StructureFile                     =                     # File *.ini containing list of structures (pumps, weirs, gates and general structures)
ManholeFile                       =                     # File *.ini containing manholes
PipeFile                          =                     # File *.pliz containing pipe-based 'culverts'
ShipdefFile                       =                     # File *.shd containing ship definitions
WaterLevIni                       = 0.                  # Initial water level at missing s0 values
waterdepthini1D                   = 0.                  # Initial waterdepth in 1D
BedlevUni                         = -10.                # Uniform bed level used at missing z values if BedlevType > 2
BedlevType                        = 3                   # Bathymetry specification
                                                        # 1: at cell centers (from BathymetryFile)
                                                        # 2: at faces (from BathymetryFile)
                                                        # 3: at nodes, face levels mean of node values
                                                        # 4: at nodes, face levels min. of node values
                                                        # 5: at nodes, face levels max. of node values
                                                        # 6: at nodes, face levels max. of cell-center values
Blmeanbelow                       = -999.               # If not -999d0, below this level the cell center bed level is the mean of surrouding net nodes
Blminabove                        = -999.               # If not -999d0, above this level the cell center bed level is the min. of surrouding net nodes
Groundlayerthickness              = -999.               # Only in pipes: groundlayer thickness (m)
PartitionFile                     =                     # Domain partition polygon file *_part.pol for parallel run
AngLat                            = 0.                  # Angle of latitude S-N (deg), 0: no Coriolis
AngLon                            = 0.                  # Angle of longitude E-W (deg), 0: Greenwich, used in solar heat flux computation.
Conveyance2D                      = -1                  # -1: R=HU,0: R=H, 1: R=A/P, 2: K=analytic-1D conv, 3: K=analytic-2D conv
Slotw2D                           = 0.                  # -
Sillheightmin                     = 0.                  # Weir treatment only if both sills larger than this value (m)
Makeorthocenters                  = 0                   # Switch from circumcentres to orthocentres in geominit (i>=1: number of iterations, 0: do not use)
Dcenterinside                     = 1.                  # Limit cell center (1.0: in cell, 0.0: on c/g)
Bamin                             = 1.d-6               # Minimum grid cell area, in combination with cut cells
OpenBoundaryTolerance             = 3.                  # Search tolerance factor between boundary polyline and grid cells, in cell size units
AllowBndAtBifurcation             = 0                   # Allow 1d boundary node when connecting branch leads to bifurcation (1: yes, 0: no)
RenumberFlowNodes                 = 1                   # Renumber the flow nodes (1: yes, 0: no)
Kmx                               = 20                  # Maximum number of vertical layers
Layertype                         = 1                   # Vertical layer type (1: all sigma, 2: all z, 3: use VertplizFile)
Numtopsig                         = 0                   # Number of sigma layers in top of z-layer model
SigmaGrowthFactor                 = 1.                  # Layer thickness growth factor from bed up
StretchType                       = -1                  # Type of layer stretching, 0 = uniform, 1 = user defined, 2 = fixed level double exponential

[numerics]
CFLMax                            = 0.7                 # Maximum Courant number
Lincontin                         = 0                   # Default 0; Set to 1 for linearizing d(Hu)/dx; link to AdvecType
AdvecType                         = 33                  # Advection type (0: none, 1: Wenneker, 2: Wenneker q(uio-u), 3: Perot q(uio-u), 4: Perot q(ui-u), 5: Perot q(ui-u) without itself)
TimeStepType                      = 2                   # Time step handling (0: only transport, 1: transport + velocity update, 2: full implicit step-reduce, 3: step-Jacobi, 4: explicit)
Icoriolistype                     = 5                   # 0=No, 1=yes, if jsferic then spatially varying, if icoriolistype==6 then constant (anglat)
Limtyphu                          = 0                   # Limiter type for waterdepth in continuity eqn. (0: none, 1: minmod, 2: van Leer, 3: Kooren, 4: monotone central)
Limtypmom                         = 4                   # Limiter type for cell center advection velocity (0: none, 1: minmod, 2: van Leer, 3: Kooren, 4: monotone central)
Limtypsa                          = 4                   # Limiter type for salinity transport (0: none, 1: minmod, 2: van Leer, 3: Kooren, 4: monotone central)
TransportMethod                   = 1                   # Transport method (0: Herman's method, 1: transport module)
TransportTimestepping             = 1                   # Timestepping method in Transport module, 0 = global, 1 = local (default)
Vertadvtypsal                     = 5                   # Vertical advection type for salinity (0: none, 1: upwind explicit, 2: central explicit, 3: upwind implicit, 4: central implicit, 5: central implicit but upwind for neg. stratif., 6: higher order explicit, no Forester)
Vertadvtyptem                     = 6                   # Vertical advection type for temperature (0: none, 1: upwind explicit, 2: central explicit, 3: upwind implicit, 4: central implicit, 5: central implicit but upwind for neg. stratif., 6: higher order explicit, no Forester)
Cffacver                          = 0.                  # Factor for including (1-CFL) in HO term vertical   (0d0: no, 1d0: yes)
Jarhoxu                           = 0                   # Inlcude density gradient in advection term (0: no, 1: yes, 2: Also in barotrop and baroclin pressure term)
Horadvtypzlayer                   = 0                   # Horizontal advection treatment of z-layers (1: default, 2: sigma-like)
Zlayercenterbedvel                = 5                   # reconstruction of center velocity at half closed bedcells (0=no, 1: copy bed link velocities)
Zlayeratubybob                    = 0                   # Lowest connected cells governed by bob instead of by bL L/R
Icgsolver                         = 4                   # Solver type (1: sobekGS_OMP, 2: sobekGS_OMPthreadsafe, 3: sobekGS, 4: sobekGS + Saadilud, 5: parallel/global Saad, 6: parallel/Petsc, 7: parallel/GS)
Maxdegree                         = 6                   # Maximum degree in Gauss elimination
Noderivedtypes                    = 5                   # 0=use der. types. , 1 = less, 2 = lesser, 5 = also dealloc der. types
FixedWeirScheme                   = 0                   # Fixed weir scheme (0: none, 1: compact stencil, 2: whole tile lifted, full subgrid weir + factor)
FixedWeirContraction              = 1.                  # Fixed weir flow width contraction factor
Fixedweirfrictscheme              = 1                   # Fixed weir friction scheme (0: friction based on hu, 1: friction based on subgrid weir friction scheme)
Fixedweirtopwidth                 = 3.                  # Uniform width of the groyne part of fixed weirs
Fixedweirtopfrictcoef             = -999.               # Uniform friction coefficient of the groyne part of fixed weirs
Fixedweirtalud                    = 4.                  # Uniform talud slope of fixed weirs
Izbndpos                          = 0                   # Position of z boundary (0: D3Dflow, 1: on net boundary, 2: on specified polyline)
Tlfsmo                            = 3600.               # Fourier smoothing time (s) on water level boundaries
Logprofatubndin                   = 1                   # ubnds inflow: 0=uniform U1, 1 = log U1, 2 = user3D
Logprofkepsbndin                  = 0                   # inflow: 0=0 keps, 1 = log keps, 2 = user3D
Slopedrop2D                       = 0.                  # Apply drop losses only if local bed slope > Slopedrop2D, (<=0: no drop losses)
Drop3D                            = 1.                  # Apply droplosses in 3D if z upwind below bob + 2/3 hu*drop3D
Chkadvd                           = 0.1                 # Check advection terms if depth < chkadvdp, => less setbacks
Trsh_u1Lb                         = 0.                  # 2D bedfriction in 3D below this threshold (m)
Epshstem                          = 1.d-3               # Only compute heatflx + evap if depth > epshstem
Zwsbtol                           = 0.                  # tolerance for zws(kb-1) at bed
Keepzlayeringatbed                = 1                   #  bedlayerthickness = zlayerthickness at bed 0 or 1
Teta0                             = 0.55                # Theta of time integration (0.5 < theta < 1)
Qhrelax                           = 1.d-2               # Relaxation on Q-h open boundaries
Jbasqbnddownwindhs                = 0                   # Water depth scheme at discharge boundaries (0: original hu, 1: downwind hs)
cstbnd                            = 0                   # Delft-3D type velocity treatment near boundaries for small coastal models (1: yes, 0: no)
Maxitverticalforestersal          = 0                   # Forester iterations for salinity (0: no vertical filter for salinity, > 0: max nr of iterations)
Maxitverticalforestertem          = 0                   # Forester iterations for temperature (0: no vertical filter for temperature, > 0: max nr of iterations)
Turbulencemodel                   = 3                   # Turbulence model (0: none, 1: constant, 2: algebraic, 3: k-epsilon, 4: k-tau)
Turbulenceadvection               = 3                   # Turbulence advection (0: none, 3: horizontally explicit and vertically implicit)
Eddyviscositybedfacmax            = 0.                  # Limit eddy viscosity at bed )
AntiCreep                         = 0                   # Include anti-creep calculation (0: no, 1: yes)
Barocterm                         = 2                   # (original = 1, current = 2 )
Maxwaterleveldiff                 = 0.                  # upper bound (in m) on water level changes (<= 0: no bounds). Run will abort when violated.
Maxvelocitydiff                   = 0.                  # upper bound (in m/s) on velocity changes (<= 0: no bounds). Run will abort when violated.
MinTimestepBreak                  = 0.                  # smallest allowed timestep (in s), checked on a sliding average of several timesteps. Run will abort when violated.
Epshu                             = 1.d-4               # Threshold water depth for wet and dry cells
SobekDFM_umin                     = 0.                  # Minimal velocity treshold for weir losses in Sobek-DFM coupling.
SobekDFM_umin_method              = 0                   # Method for minimal velocity treshold for weir losses in Sobek-DFM coupling.
SobekDFM_Minimal_1d2d_Embankment  = 1.d-2               # Minimal crest height of 1D2D SOBEK-DFM embankments.
sobekDFM_relax                    = 0.1                 # Relaxation factor for SOBEK-DFM coupling algorithm.
Vertadvtypmom                     = 3                   # vertical advection for u1: 0: No, 3: Upwind implicit, 4: Central implicit, 5: QUICKEST implicit., 6: centerbased upwind expl
jaupwindsrc                       = 1                   # 1st-order upwind advection at sources/sinks (1) or higher-order (0)
jasfer3D                          = 0                   # corrections for spherical coordinates
vicouv_filter                     = 0.                  # artificial viscosity for filtering (m2/s)
LocSaltLev                        = 1.                  # salinity level for case of lock exchange
LocSaltMin                        = 5.                  # minimum salinity for case of lock exchange
LocSaltMax                        = 10.                 # maximum salinity for case of lock exchange
Numlimdt_baorg                    = 0                   # if previous numlimdt > Numlimdt_baorg keep original cell area ba in cutcell
Baorgfracmin                      = 0.                  # Cell area = max(orgcellarea*Baorgfracmin, cutcell area)

[physics]
UnifFrictCoef                     = 2.3d-2              # Uniform friction coefficient (0: no friction)
UnifFrictType                     = 1                   # Uniform friction type (0: Chezy, 1: Manning, 2: White-Colebrook, 3: idem, WAQUA style)
UnifFrictCoef1D                   = 2.3d-2              # Uniform friction coefficient in 1D links (0: no friction)
UnifFrictCoef1D2D                 = 2.3d-2              # Uniform friction coefficient in 1D links (0: no friction)
UnifFrictCoefLin                  = 0.                  # Uniform linear friction coefficient (0: no friction)
UnifFrictCoef1DgrLay              = 5.d-2               # Uniform ground layer friction coefficient for ocean models (m/s) (0: no friction)
Umodlin                           = 0.                  # Linear friction umod, for ifrctyp=4,5,6
Vicouv                            = 1.                  # Uniform horizontal eddy viscosity (m2/s)
Dicouv                            = 1.                  # Uniform horizontal eddy diffusivity (m2/s)
Vicoww                            = 5.d-5               # Uniform vertical eddy viscosity (m2/s)
Dicoww                            = 5.d-5               # Uniform vertical eddy diffusivity (m2/s)
Vicwminb                          = 0.                  # Minimum visc in prod and buoyancy term (m2/s)
Xlozmidov                         = 0.                  # Ozmidov length scale (m), default=0.0, no contribution of internal waves to vertical diffusion
Smagorinsky                       = 0.                  # Smagorinsky factor in horizontal turbulence, e.g. 0.15
Elder                             = 0.                  # Elder factor in horizontal turbulence
irov                              = 0                   # 0=free slip, 1 = partial slip using wall_ks
wall_ks                           = 0.                  # Wall roughness type (0: free slip, 1: partial slip using wall_ks)
Rhomean                           = 1000.               # Average water density (kg/m3)
Idensform                         = 0                   # Density calulation (0: uniform, 1: Eckart, 2: Unesco, 3: baroclinic case)
Ag                                = 9.813               # Gravitational acceleration
TidalForcing                      = 0                   # Tidal forcing, if jsferic=1 (0: no, 1: yes)
SelfAttractionLoading             = 0                   # Self attraction and loading (0=no, 1=yes, 2=only self attraction)
ITcap                             = 0.                  # Upper limit on internal tides dissipation (W/m^2)
Doodsonstart                      = 55.565              # TRIWAQ: 55.565, D3D: 57.555
Doodsonstop                       = 375.575             # TRIWAQ: 375.575, D3D: 275.555
Doodsoneps                        = 0.                  # TRIWAQ = 0.0  400 cmps , D3D = 0.03   60 cmps
VillemonteCD1                     = 1.                  # Calibration coefficient for Villemonte. Default = 1.0.  NB. For Bloemberg data set 0.8 is recommended.
VillemonteCD2                     = 10.                 # Calibration coefficient for Villemonte. Default = 10.0. NB. For Bloemberg data set 0.8 is recommended.
Salinity                          = 0                   # Include salinity, (0=no, 1=yes)
InitialSalinity                   = 0.                  # Uniform initial salinity concentration (ppt)
Sal0abovezlev                     = -999.               # Vertical level (m) above which salinity is set 0
DeltaSalinity                     = -999.               # for testcases
Salimax                           = -999.               # Limit the salinity
Salimin                           = 0.                  # Limit the salinity
Backgroundsalinity                = 30.                 # Background salinity for eqn. of state (ppt)
Backgroundwatertemperature        = 6.                  # Background water temperature for eqn. of state (deg C)
Temperature                       = 0                   # Include temperature (0: no, 1: only transport, 3: excess model of D3D, 5: composite (ocean) model)
InitialTemperature                = 6.                  # Uniform initial water temperature (degC)
Secchidepth                       = 2.                  # Water clarity parameter (m)
Stanton                           = -1.                 # Coefficient for convective heat flux, if negative, Ccon = abs(Stanton)*Cdwind
Dalton                            = -1.                 # Coefficient for evaporative heat flux, if negative, Ceva = abs(Dalton)*Cdwind
Tempmax                           = -999.               # Limit the temperature
Tempmin                           = 0.                  # Limit the temperature
Surftempsmofac                    = 0.                  # Hor . Smoothing factor for surface water in heatflx comp. (0.0-1.0), 0=no
Soiltempthick                     = 0.1                 # Use soil temperature buffer if > 0, e.g. 0.2 (m)
Heat_eachstep                     = 1                   # 1=heat each timestep, 0=heat each usertimestep
SecondaryFlow                     = 0                   # Secondary flow (0: no, 1: yes)
BetaSpiral                        = 0.                  # Weight factor of the spiral flow intensity on flow dispersion stresses
Equili                            = 0                   # Equilibrium spiral flow intensity (0: no, 1: yes)

[sediment]
Sedimentmodelnr                   = 0                   # Sediment model nr, (0=no, 1=Krone, 2=SvR2007, 3=E-H, 4=MorphologyModule)
Nr_of_sedfractions                = 0                   # Nr of sediment fractions, (specify the next parameters for each fraction)
MxgrKrone                         = 0                   # Highest fraction index treated by Krone
Seddenscoupling                   = 0                   # Sed rho coupling (0=no, 1 =yes

[veg]
Vegetationmodelnr                 = 0                   # Vegetation model nr, (0=no, 1=Baptist DFM)
Clveg                             = 0.8                 # Stem distance factor, default 0.8 ()
Cdveg                             = 0.7                 # Stem Cd coefficient , default 0.7 ()
Cbveg                             = 0.                  # Stem stiffness coefficient , default 0.7 ()
Rhoveg                            = 0.                  # Stem Rho, if > 0, -> bouyant stick procedure, default 0.0 ()
Stemheightstd                     = 0.                  # Stem height standard deviation fraction, e.g. 0.1  ()

[wind]
ICdtyp                            = 2                   # Wind drag coefficient type (1=Const; 2=Smith&Banke (2 pts); 3=S&B (3 pts); 4=Charnock 1955, 5=Hwang 2005, 6=Wuest 2005, 7=Hersbach 2010 (2 pts)
Cdbreakpoints                     = 6.3d-4 7.23d-3      # Wind drag coefficient break points
Windspeedbreakpoints              = 0. 100.             # Wind speed break points (m/s)
Relativewind                      = 0                   # Wind speed relative to top-layer water speed, 1=yes, 0 = no)
Rhoair                            = 1.205               # Air density (kg/m3)
PavBnd                            = 0.                  # Average air pressure on open boundaries (N/m2) (only applied if > 0)
Pavini                            = 0.                  # Average air pressure for initial water level correction (N/m2) (only applied if > 0)
Stericcorrection                  = 0                   # Steric correction on waterlevel bnds, for which sal + temp should be prescribed

[grw]
groundwater                       = 0                   # 0=No (horizontal) groundwater flow, 1=With groundwater flow
Infiltrationmodel                 = 0                   # 0=No infiltration, 1=infiltration=interceptionlayer (with grw), 2=infiltration=Infiltrationcapacity, 3=model unsaturated/saturated (with grw) ( )
Hinterceptionlayer                = 0.                  # Intercept this amount of rain (m)
UnifInfiltrationCapacity          = 0.                  # Uniform maximum infiltration capacity (m/s)
Conductivity                      = 0.                  # non dimensionless K conductivity   saturated (m/s), Q = K*A*i (m3/s)
h_aquiferuni                      = 20.                 # bgrw = bl - h_aquiferuni (m), if negative, bgrw = bgrwuni
h_unsatini                        = 0.200000002980232   # initial level groundwater is bedlevel - h_unsatini (m), if negative, sgrw = sgrwini

[waves]
Wavemodelnr                       = 0                   # Wave model nr. (0: none, 1: fetch/depth limited hurdlestive, 2: Young-Verhagen, 3: SWAN, 5: uniform
Wavenikuradse                     = 1.d-2               # Wave friction Nikuradse ks coefficient (m), used in Krone-Swart
Rouwav                            = FR84                # Friction model for wave induced shear stress: FR84 (default) or: MS90, HT91, GM79, DS88, BK67, CJ85, OY88, VR04
Gammax                            = 1.                  # Maximum wave height/water depth ratio
uorbfac                           = 0                   # Orbital velocities: 0=D3D style; 1=Guza style
jahissigwav                       = 1                   # 1: sign wave height on his output; 0: hrms wave height on his output. Default=1.
jamapsigwav                       = 0                   # 1: sign wave height on map output; 0: hrms wave height on map output. Default=0 (legacy behaviour).
hminlw                            = 0.2                 # Cut-off depth for application of wave forces in momentum balance

[time]
RefDate                           = 20010101            # Reference date (yyyymmdd)
Tzone                             = 0.                  # Time zone assigned to input time series
DtUser                            = 300.                # Time interval (s) for external forcing update
DtNodal                           = 21600.              # Time interval (s) for updating nodal factors in astronomical boundary conditions
DtMax                             = 30.                 # Maximal computation timestep (s)
Dtfacmax                          = 1.1                 # Max timestep increase factor ( )
DtInit                            = 1.                  # Initial computation timestep (s)
Timestepanalysis                  = 0                   # 0=no, 1=see file *.steps
AutoTimestep                      = 5                   # 0 = no, 1 = 2D (hor. out), 3=3D (hor. out), 5 = 3D (hor. inout + ver. inout), smallest dt
Autotimestepdiff                  = 0                   # 0 = no, 1 = yes (Time limitation based on explicit diffusive term)
Tunit                             = S                   # Time unit for start/stop times (D, H, M or S)
TStart                            = 586310400.          # Start time w.r.t. RefDate (in TUnit)
TStop                             = 620611200.          # Stop  time w.r.t. RefDate (in TUnit)

[restart]
RestartFile                       =                     # Restart netcdf-file, either *_rst.nc or *_map.nc
RestartDateTime                   = 20190403            # Restart date and time (yyyymmddhhmmss) when restarting from *_map.nc

[external forcing]
ExtForceFile                      =                     # Old format for external forcings file *.ext, link with tim/cmp-format boundary conditions specification
ExtForceFileNew                   = FlowFM_bnd.ext      # New format for external forcings file *.ext, link with bc-format boundary conditions specification
Rainfall                          = 0                   # Include rainfall, (0=no, 1=yes)
QinExt                            = 0                   # Include user Qin, externally provided, (0=no, 1=yes)
Evaporation                       = 0                   # Include evaporation in water balance, (0=no, 1=yes)

[trachytopes]
TrtRou                            = N                   # Include alluvial and vegetation roughness (trachytopes) (Y: yes, N: no)
TrtDef                            =                     # File (*.ttd) including trachytope definitions
TrtL                              =                     # File (*.arl) including distribution of trachytope definitions
DtTrt                             = 60.                 # Trachytope roughness update time interval (s)
TrtMxR                            = 8                   # Maximum recursion level for combined trachytope definitions
TrtCll                            =                     # Calibration factor file for roughness from trachytopes (see also [calibration] block)
TrtMnH                            = 0.1                 # Minimum water depth for roughness computations
TrtMth                            = 1                   # Area averaging method, (1=Nikuradse k based, 2=Chezy C based (parallel and serial))

[calibration]
UseCalibration                    = 0                   # Activate calibration factor friction multiplier (1 = yes, 0 = no)
DefinitionFile                    =                     # File (*.cld) including calibration definitions
AreaFile                          =                     # File (*.cll) including area distribution of calibration definitions

[output]
OutputDir                         =                     # Output directory of map-, his-, rst-, dat- and timings-files, default: DFM_OUTPUT_<modelname>. Set to . for current dir.
FlowGeomFile                      =                     # Flow geometry NetCDF *_flowgeom.nc
ObsFile                           = FlowFM_obs.xyn      # Points file *_obs.xyn with observation stations with rows x, y, station name
CrsFile                           =                     # Polyline file *_crs.pli defining observation cross sections
FouFile                           =                     # Fourier analysis input file *.fou
FouUpdateStep                     = 0                   # Fourier update step type: 0=every user time step, 1=every computational timestep.
HisFile                           =                     # HisFile name *_his.nc, if empty, name of mdu file_his.nc is used
MapFile                           =                     # MapFile name *_map.nc, if empty, name of mdu file_map.nc is used
HisInterval                       = 300.                # History output interval (s), or "interval" "start period" "end period" (s)
XLSInterval                       = 0.                  # Interval (s) between XLS history
MapInterval                       = 1200.               # Map output interval (s), or "interval" "start period" "end period" (s)
RstInterval                       = 0.                  # Restart output interval (s), or "interval" "start period" "end period" (s)
WaqOutputDir                      =                     # Output directory of WAQ communication files (flowgeom, vol, flo, etc.), default: DFM_DELWAQ_<modelname>. Set to . for current dir.
WaqInterval                       = 3600. 586310400. 620611200.# DELWAQ output times, given as "interval" "start period" "end period" (s)
ClassMapInterval                  = 0. 586310400. 620611200.# Class map output times, given as "interval" "start period" "end period" (s)
ClassMapFile                      =                     # ClassMapFile name *_clm.nc
WaterlevelClasses                 =                     # Class map's list of class values for water levels
WaterDepthClasses                 =                     # Class map's list of class values for water depths
VelocityMagnitudeClasses          =                     # Class map's list of class values for velocity magnitudes
StatsInterval                     = -60.                # Screen step output interval in seconds simulation time, if negative in seconds wall clock time
WriteBalancefile                  = 0                   # Write balance file (1: yes, 0: no)
TimingsInterval                   = 0.                  # Timings statistics output interval
TimeSplitInterval                 = 0 s                 # Time splitting interval, after which a new output file is started. value+unit, e.g. '1 M', valid units: Y,M,D,h,m,s.
MapFormat                         = 4                   # Map file format, 1: netCDF, 2: Tecplot, 3: netCFD and Tecplot, 4: NetCDF-UGRID
NcFormat                          = 3                   # Format for all NetCDF output files (3: classic, 4: NetCDF4+HDF5)
Wrihis_balance                    = 1                   # Write mass balance totals to his file (1: yes, 0: no)
Wrihis_sourcesink                 = 1                   # Write sources-sinks statistics to his file (1=yes, 0=no)
Wrihis_structure_gen              = 1                   # Write general structure parameters to his file (1: yes, 0: no)
Wrihis_structure_dam              = 1                   # Write dam parameters to his file (1: yes, 0: no)
Wrihis_structure_pump             = 1                   # Write pump parameters to his file (1: yes, 0: no)
Wrihis_structure_gate             = 1                   # Write gate parameters to his file (1: yes, 0: no)
Wrihis_structure_weir             = 1                   # Write weir parameters to his file (1: yes, 0: no)
Wrihis_turbulence                 = 1                   # Write k, eps and vicww to his file (1: yes, 0: no)
Wrihis_wind                       = 1                   # Write wind velocities to his file (1: yes, 0: no)
Wrihis_rain                       = 1                   # Write precipitation to his file (1: yes, 0: no)
Wrihis_temperature                = 0                   # Write temperature to his file (1: yes, 0: no)
Wrihis_waves                      = 1                   # Write wave data to his file (1: yes, 0: no)
Wrihis_heat_fluxes                = 0                   # Write heat fluxes to his file (1: yes, 0: no)
Wrihis_salinity                   = 0                   # Write salinity to his file (1: yes, 0: no)
Wrihis_density                    = 1                   # Write density to his file (1: yes, 0: no)
Wrihis_waterlevel_s1              = 1                   # Write water level to his file (1: yes, 0: no)
Wrihis_bedlevel                   = 1                   # Write bed level to his file (1: yes, 0: no)
Wrihis_waterdepth                 = 0                   # Write waterd epth to his file (1: yes, 0: no)
Wrihis_velocity_vector            = 1                   # Write velocity vectors to his file (1: yes, 0: no)
Wrihis_upward_velocity_component  = 0                   # Write upward velocity to his file (1: yes, 0: no)
Wrihis_sediment                   = 1                   # Write sediment transport to his file (1: yes, 0: no)
Wrihis_constituents               = 1                   # Write tracers to his file (1: yes, 0: no)
Wrihis_zcor                       = 1                   # Write vertical coordinates to his file (1: yes, 0: no)
Wrimap_waterlevel_s0              = 1                   # Write water levels for previous time step to map file (1: yes, 0: no)
Wrimap_waterlevel_s1              = 1                   # Write water levels to map file (1: yes, 0: no)
Wrimap_volume1                    = 0                   # Write volumes to map file (1: yes, 0: no)
Wrimap_velocity_component_u0      = 1                   # Write velocity component for previous time step to map file (1: yes, 0: no)
Wrimap_velocity_component_u1      = 1                   # Write velocity component to map file (1: yes, 0: no)
Wrimap_velocity_vector            = 1                   # Write cell-center velocity vectors to map file (1: yes, 0: no)
Wrimap_velocity_magnitude         = 1                   # Write cell-center velocity vector magnitude to map file (1: yes, 0: no)
Wrimap_velocity_vectorq           = 0                   # Write cell-center velocity vectors (discharge-based) to map file (1: yes, 0: no)
Wrimap_upward_velocity_component  = 0                   # Write upward velocity component on cell interfaces (1: yes, 0: no)
Wrimap_density_rho                = 1                   # Write flow density to map file (1: yes, 0: no)
Wrimap_horizontal_viscosity_viu   = 1                   # Write horizontal viscosity to map file (1: yes, 0: no)
Wrimap_horizontal_diffusivity_diu = 1                   # Write horizontal diffusivity to map file (1: yes, 0: no)
Wrimap_flow_flux_q1               = 1                   # Write flow flux to map file (1: yes, 0: no)
Wrimap_flow_flux_q1_main          = 0                   # Write flow flux in main channel to map file (1: yes, 0: no)
Wrimap_numlimdt                   = 1                   # Write the number times a cell was Courant limiting to map file (1: yes, 0: no)
Wrimap_taucurrent                 = 1                   # Write the shear stress to map file (1: yes, 0: no)
Wrimap_chezy                      = 1                   # Write the chezy roughness to map file (1: yes, 0: no)
Wrimap_turbulence                 = 1                   # Write vicww, k and eps to map file (1: yes, 0: no)
Wrimap_wind                       = 1                   # Write wind velocities to map file (1: yes, 0: no)
Writek_CdWind                     = 1                   # Write wind friction coeffs to tek file (1: yes, 0: no)
Wrimap_DTcell                     = 0                   # Write time step per cell based on CFL (1: yes, 0: no)
Writepart_domain                  = 1                   # Write partition domain info. for postprocessing
Wrishp_crs                        = 0                   # Write grid-snapped cross sections to shapefile (1: yes, 0: no)
Wrishp_obs                        = 0                   # Write grid-snapped observation stations to shapefile (1: yes, 0: no)
Wrishp_weir                       = 0                   # Write grid-snapped weirs to shapefile (1: yes, 0: no)
Wrishp_thd                        = 0                   # Write grid-snapped thin dams to shapefile (1: yes, 0: no)
Wrishp_gate                       = 0                   # Write grid-snapped gates to shapefile (1: yes, 0: no)
Wrishp_emb                        = 0                   # Write grid-snapped 1d2d embankments to shapefile (1: yes, 0: no)
Wrishp_fxw                        = 0                   # Write grid-snapped fixed weirs to shapefile (1: yes, 0: no)
Wrishp_src                        = 0                   # Write grid-snapped source-sinks to shapefile (1: yes, 0: no)
Wrishp_pump                       = 0                   # Write grid-snapped pumps to shapefile (1: yes, 0: no)
Wrishp_dryarea                    = 0                   # Write a shape file for dry areas
WriteDFMinterpretedvalues         = 0                   # Write DFMinterpretedvalues (1: yes, 0: no)
MapOutputTimeVector               =                     # File (*.mpt) containing fixed map output times (s) w.r.t. RefDate
FullGridOutput                    = 0                   # Full grid output mode (0: compact, 1: full time-varying grid data)
EulerVelocities                   = 0                   # Euler velocities output (0: GLM, 1: Euler velocities)
Wrirst_bnd                        = 1                   # Write waterlevel, bedlevel and coordinates of boundaries to restart files

[particles]
ParticlesFile                     = 
AddTracer                         = 0                   # add tracer (1) or not (other)
StartTime                         = 0.                  # starttime (if >0)
TimeStep                          = 0.                  # time step (>0) or every computational time step
3Dtype                            = 0                   # 3D type: depth averaged (0) or free surface (1)

[processes]
SubstanceFile                     =                                                                                                                                                                                                                                                                #
AdditionalHistoryOutputFile       =                                                                                                                                                                                                                                                                #
ThetaVertical                     = 0.                  # theta vertical for waq
DtProcesses                       = 0.                  # waq processes time step
DtMassBalance                     = 0.                  # waq mass balance output time step
ProcessFluxIntegration            = 1                   # Process fluxes integration option (1: WAQ, 2: D-Flow FM)
** INFO   : **
** INFO   : Writing initial output to file(s)...
** DEBUG  : Opened NetCDF file 'DFM_OUTPUT_flowfm\flowfm_his.nc' as #131072.
** DEBUG  : Opened NetCDF file 'DFM_OUTPUT_flowfm\flowfm_map.nc' as #196608.
** INFO   : In waq_wri_model_files().
** INFO   : Opened file : DFM_DELWAQ_flowfm\flowfm.hyd
** INFO   : Closed file : DFM_DELWAQ_flowfm\flowfm.hyd
** DEBUG  : Opened NetCDF file 'DFM_DELWAQ_flowfm\flowfm_waqgeom.nc' as #262144.
** DEBUG  : Closed NetCDF file 'DFM_DELWAQ_flowfm\flowfm_waqgeom.nc.
** INFO   : Opened file : DFM_DELWAQ_flowfm\flowfm.bnd
** INFO   : Closed file : DFM_DELWAQ_flowfm\flowfm.bnd
** INFO   : Opened file : DFM_DELWAQ_flowfm\flowfm.poi
** INFO   : Opened file : DFM_DELWAQ_flowfm\flowfm.len
** INFO   : Opened file : DFM_DELWAQ_flowfm\flowfm.srf
** INFO   : Opened file : DFM_DELWAQ_flowfm\flowfm.srfold
** INFO   : Opened file : DFM_DELWAQ_flowfm\flowfm.atr
** INFO   :  In waq_wri_couple_files: #           0 , time:    586310400.000000
** INFO   : Opened file : DFM_DELWAQ_flowfm\flowfm.vol
** INFO   : Opened file : DFM_DELWAQ_flowfm\flowfm.tau
** INFO   : Opened file : DFM_DELWAQ_flowfm\flowfm.vdf
** INFO   : Done writing initial output to file(s).
** INFO   :    Sim. time done   Sim. time left   Real time used   Real time left Steps left Complete% Interval-averaged time step
** INFO   :               0d  0:1            396d 23:5              0d  0:0              0d  8:4     114334     0.0%     0.00000
** INFO   :  In waq_wri_couple_files: #           1 , time:    586314000.000000
** INFO   : Opened file : DFM_DELWAQ_flowfm\flowfm.are
** INFO   : Opened file : DFM_DELWAQ_flowfm\flowfm.flo
** INFO   :  In waq_wri_couple_files: #           2 , time:    586317600.000000
** INFO   : User interrupt
** INFO   : 
** INFO   : 
** INFO   : 
** INFO   : nr of netnodes         ( )  :                      512
** INFO   : nr of netlinks         ( )  :                     1008
** INFO   : nr of flownodes        ( )  :                      517
** INFO   : nr of openbnd cells    ( )  :                       20
** INFO   : nr of 1D-flownodes     ( )  :                        0
** INFO   : model area             (m2) :         0.3000000000E+07
** INFO   : model volume           (m3) :         0.3240784377E+08
** INFO   : 
** INFO   : 
** INFO   : 
** INFO   : nr of timesteps        ( )  :          3061.0000000000
** INFO   : average timestep       (s)  :         11205.7497549820
** INFO   : 
** INFO   : 
** INFO   : simulation period      (d)  :           397.0000000000
** INFO   : total computation time (d)  :             0.0005227894
** INFO   : time modelinit         (d)  :             0.0000010532
** INFO   : time steps (+ plots)   (d)  :             0.0005217361
** INFO   : 
** INFO   : simulation period      (h)  :          9528.0000000000
** INFO   : total computation time (h)  :             0.0125469444
** INFO   : time modelinit         (h)  :             0.0000252778
** INFO   : time steps (+ plots)   (h)  :             0.0125216667
** INFO   : 
** INFO   : simulation period      (s)  :      34300800.0000000000
** INFO   : total computation time (s)  :            45.1690000000
** INFO   : time modelinit         (s)  :             0.0910000000
** INFO   : time steps (+ plots)   (s)  :            45.0780000000
** INFO   : 
** INFO   : 
** INFO   : time iniexternalforc.  (s)  :             0.0080000000
** INFO   : 
** INFO   : time inistep           (s)  :            20.0039999999
** INFO   : time setumod           (s)  :            10.4869999999
** INFO   : time furu              (s)  :            14.9909999999
** INFO   : time solve             (s)  :             1.8010000001
** INFO   : time setexternalforc.  (s)  :             0.0000000000
** INFO   : time setexternalfbnd.  (s)  :             0.0770000000
** INFO   : time steps             (s)  :            41.8340000000
** INFO   : fraction solve/steps   ( )  :             0.0430511068
** INFO   : total/(dnt*ndx)        (s)  :             0.0000284846
** INFO   : av nr of cont. it s1it ( )  :             0.0000000000
** INFO   : time transport [s]         :             1.0860000000
** INFO   : time processes [s]         :             0.0000000000
** INFO   : time debug     [s]         :             0.0000000000
** INFO   : 
** INFO   : 
** INFO   : 
** INFO   : Computation started  at: 16:18:05, 03-04-2019
** INFO   : Computation finished at: 16:18:51, 03-04-2019
** INFO   : 
** INFO   : simulation period      (h)  :          9528.0000000000
** INFO   : total time in timeloop (h)  :             0.0125216667
** INFO   : MPI    : no.
** INFO   : OpenMP : yes.         #threads max : 4
** INFO   : 
** INFO   : 
** INFO   : 
** INFO   : Opened file : DFM_OUTPUT_flowfm\flowfm_numlimdt.xyz
** INFO   : Closed file : DFM_OUTPUT_flowfm\flowfm_numlimdt.xyz
** INFO   : 
** INFO   : Load MDU-file                    (*.mdu)
** INFO   : Opened file : flowfm.mdu
** INFO   : Closed file : flowfm.mdu
** DEBUG  :           21  0.1000020      NOD(KMAX)
** DEBUG  :           27  0.7000140      XK (KMAX), YK (KMAX), ZK (KMAX), KC (KMAX), NMK (KMAX), RNOD(KMAX)
** DEBUG  :           27  2.0160000E-03  xsp(maxspl, maxsplen)
** DEBUG  :           27  2.0160000E-03  ysp(maxspl, maxsplen)
** DEBUG  :           27  2.0160000E-03  xsp2(maxspl, maxsplen)
** DEBUG  :           27  2.0160000E-03  ysp2(maxspl, maxsplen)
** WARNING: readMDUFile: [numerics] jaorgsethu=1 was in file, but not used. Check possible typo.
** WARNING: readMDUFile: [physics] effectspiral=0 was in file, but not used. Check possible typo.
** WARNING: readMDUFile: [output] wrishp_enc=0 was in file, but not used. Check possible typo.
** WARNING: readMDUFile: [output] waterlevelclasses=0.0 was in file, but not used. Check possible typo.
** WARNING: readMDUFile: [output] waterdepthclasses=0.0 was in file, but not used. Check possible typo.
** INFO   : Network UGRID-File: No 1D-Mesh Present, Skipped 1D
** INFO   : Opened file : FlowFM_obs.xyn
** INFO   : Closed file : FlowFM_obs.xyn
** INFO   : Start of the computation time loop
** INFO   : Closed file : DFM_DELWAQ_flowfm\flowfm.vol
** INFO   : Closed file : DFM_DELWAQ_flowfm\flowfm.are
** INFO   : Closed file : DFM_DELWAQ_flowfm\flowfm.flo
** INFO   : Closed file : DFM_DELWAQ_flowfm\flowfm.tau
** INFO   : Closed file : DFM_DELWAQ_flowfm\flowfm.vdf
** INFO   : Initializing flow model geometry...
** DEBUG  : Opened 'FlowFM_net.nc' as #    262144.
** WARNING: Could not read net cells from NetCDF file 'FlowFM_net.nc' (is not critical). Details follow:
** DEBUG  : NetCDF error: NetCDF: Invalid dimension ID or name (nNetElem)
** DEBUG  :           27  1.0080000E-03  lnn(numl)
** DEBUG  :           27  2.0160000E-03  lne(2,numl)
** DEBUG  :           27  1.0080000E-03  xe (nx)
** DEBUG  :           27  1.0080000E-03  ye (nx)
** DEBUG  :           27  1.0080000E-03  xyen(2, nx)
** DEBUG  :           27  1.7136000E-02  kce(nx), ke(nx), kez(nx), keu(nx), kes(nx), ketm(nx), kesd(nx), keuxy(nx), ket(nx), ken(nx), ke1d2d(nx), keg(nx), ked(nx), kep(nx), kedb(nx), keklep(nx), kevalv(nx), kegs(nx), kegen(nx), itpez(nx), itpenz(nx), itpeu(nx) , itpenu(nx) , kew(nx), ftpet(nx)
** DEBUG  :           27  1.0080000E-03  ketr(nx,1)
** DEBUG  :           27  1.0080000E-03  kesf(1,nx)
** INFO   : Opened file : Boundary01.pli
** INFO   : Closed file : Boundary01.pli
** INFO   : boundary: 'Boundary01.pli' opened 10 cells.
** INFO   : waterlevelbnd Boundary01.pli      10 nr of open bndcells
** INFO   : Opened file : Boundary02.pli
** INFO   : Closed file : Boundary02.pli
** INFO   : boundary: 'Boundary02.pli' opened 10 cells.
** INFO   : waterlevelbnd Boundary02.pli      10 nr of open bndcells
** DEBUG  :           27  4.1359998E-03  nd(ndx), bl(ndx), bai(ndx), bai_mor(ndx), ba_mor(ndx), kcs(ndx)
** DEBUG  :           27  1.8960000E-03  ln   (2,lnx)
** DEBUG  :           27  1.8960000E-03  lncn (2,lnx)
** DEBUG  :           27  1.8960000E-03  bob  (2,lnx)
** DEBUG  :           27  2.8440000E-03  xu(lnx), yu(lnx) , blu(lnx)
** DEBUG  :           27  1.0080000E-03  ln2lne (nex)
** DEBUG  :           27  1.0080000E-03  lne2ln (nex)
** DEBUG  : addexternalboundarypoints: added 0 bnd points for SOBEK1D-FM2D connections.
** INFO   : setbedlevelfromextfile: Using bedlevel as specified in net-file.
** DEBUG  :           27  1.5360001E-03  wcnxy(3,numk)
** DEBUG  :           27  1.0200000E-03  walls(17,nw)
** DEBUG  :           27  1.0340000E-03  wcxy (2,ndx)
** DEBUG  :           27  1.8960000E-03  wcL  (2,Lnx)
** DEBUG  :           27  1.9360000E-03  banf(mxban)
** DEBUG  :           27  1.9360000E-03  nban(4,mxban)
** DEBUG  :           27  1.9360000E-03  rr(mxban), nr(mxban)
** DEBUG  :           27  1.9360000E-03  banh (mxban)
** DEBUG  :           28  1.9360000E-03  nbanh(4,mxban)
** INFO   : Done initializing flow model geometry.
** DEBUG  :           28  1.0340000E-03  s0  (ndx) , s1  (ndx)
** DEBUG  :           28  1.0340000E-03  a0  (ndx) , a1  (ndx)
** DEBUG  :           28  1.0340000E-03  hs  (ndx) , s00 (ndx)
** DEBUG  :           28  2.2747999E-02  ucx (ndkx) , ucy (ndkx)
** DEBUG  :           28  2.2747999E-02  uqcx(ndkx) , uqcy(ndkx)
** DEBUG  :           28  2.2747999E-02  ucxq(ndkx) , ucyq(ndkx)
** DEBUG  :           28  2.2747999E-02  qin (ndkx) , vih (ndkx)
** DEBUG  :           29  2.2747999E-02  dvxc(ndkx) , dvyc(ndkx)
** DEBUG  :           29  1.1374000E-02  squ (ndkx)
** DEBUG  :           29  1.1374000E-02  sqi (ndkx)
** DEBUG  :           29  1.1374000E-02  vol0(ndkx)
** DEBUG  :           29  1.1374000E-02  vol1(ndkx)
** DEBUG  :           29  1.1374000E-02  vol1_f(ndkx)
** DEBUG  :           29  1.1374000E-02  dtcell(ndkx)
** DEBUG  :           29  1.1374000E-02  ucz (ndkx)
** DEBUG  :           29  1.1374000E-02  rho (ndkx)
** DEBUG  :           29  1.1374000E-02  ww1 (ndkx)
** DEBUG  :           29  1.1374000E-02  qw  (ndkx)
** DEBUG  :           30  1.1374000E-02  zws (ndkx)
** DEBUG  :           30  1.1374000E-02  zws0(ndkx)
** DEBUG  :           30  1.1374000E-02  workx (ndkx)
** DEBUG  :           30  1.1374000E-02  worky (ndkx)
** DEBUG  :           30  1.9908000E-02  work0 (0:max(kmx,1),max(ndx,lnx))
** DEBUG  :           30  1.8959999E-02  work1 (max(kmx,1),max(ndx,lnx))
** DEBUG  :           30  2.0856000E-02  turkin0  (Lnkx)
** DEBUG  :           30  2.0856000E-02  turkin1  (Lnkx)
** DEBUG  :           31  2.0856000E-02  tureps0  (Lnkx)
** DEBUG  :           31  2.0856000E-02  tureps1  (Lnkx)
** DEBUG  :           31  2.0856000E-02  vicwwu   (Lnkx)
** DEBUG  :           31  1.1374000E-02  vicwws   (ndkx)
** DEBUG  :           31  1.1374000E-02  turkinepsws (2,ndkx)
** DEBUG  :           31  1.1374000E-02  sqcu(Ndkx)
** DEBUG  :           31  1.1374000E-02  tqcu(Ndkx)
** DEBUG  :           31  1.1374000E-02  eqcu(Ndkx)
** DEBUG  :           32  2.0856000E-02  u0   (lnkx)
** DEBUG  :           32  2.0856000E-02  u1   (lnkx)
** DEBUG  :           32  2.0856000E-02  q1   (lnkx)
** DEBUG  :           32  2.0856000E-02  qa   (lnkx)
** DEBUG  :           32  2.0856000E-02  v    (lnkx)
** DEBUG  :           32  2.0856000E-02  ucxu (lnkx)
** DEBUG  :           33  2.0856000E-02  ucyu (lnkx)
** DEBUG  :           33  2.0856000E-02  hu   (lnkx)
** DEBUG  :           33  2.0856000E-02  huvli(lnkx)
** DEBUG  :           33  2.0856000E-02  au   (lnkx)
** DEBUG  :           33  2.0856000E-02  viu  (lnkx)
** DEBUG  :           33  2.0856000E-02  vicLu(lnkx)
** DEBUG  :           34  2.0856000E-02  suu  (lnkx)
** DEBUG  :           34  2.0856000E-02  advi (lnkx)
** DEBUG  :           34  2.0856000E-02  adve (lnkx)
** DEBUG  :           34  2.0856000E-02  plotlin(max(lnkx,ndkx))
** DEBUG  :           34  1.1374000E-02  sa1 (ndkx)
** DEBUG  :           34  1.1374000E-02  rich(lnkx)
** INFO   : Finding flow nodes...
** INFO   : done in      0.00200 sec.
** INFO   : Start initializing external forcings...
** INFO   : Done initializing external forcings.
** DEBUG  :           34  2.0740000E-03  ccr(0:ijstck)
** DEBUG  :           34  2.0740000E-03  bbl(0:ijstck)
** DEBUG  :           34  1.0340000E-03  bbr(nodtot), ddr(nodtot)
** DEBUG  :           34  2.5849999E-03  d0(nodtot), zkr(nodtot),pk(0:nodtot), apk(nodtot), rk(nodtot)
** INFO   : nogauss , nocg :            308           209
** DEBUG  :           35  1.1799000E-02  iao(nn+1)
** DEBUG  :           35  5.1110000E-03  ao(na)
** DEBUG  :           35  1.2540000E-02  wk(nwk)
** INFO   : Finding flow nodes...
** INFO   : done in      0.00100 sec.
** INFO   : Modelinit finished   at: 16:18:57, 03-04-2019
** INFO   : ** Model initialization was successful **
** INFO   : * Active Model definition:
# Generated on 16:18:57, 03-04-2019
# Deltares, D-Flow FM Version 1.2.40.60360M, Feb 13 2019, 17:40:24
# Source:https://svn.oss.deltares.nl/repos/delft3d/trunk/

[model]
Program                           = D-Flow FM
Version                           = 1.2.40.60360M
MDUFormatVersion                  = 1.06                # File format version (do not edit this)
AutoStart                         = 0                   # Autostart simulation after loading MDU (0: no, 1: autostart, 2: autostartstop)
ModelSpecific                     =                                                                 # Optional 'model specific ID', to enable certain custom runtime function calls (instead of via MDU name).

[geometry]
NetFile                           = flowfm_net.nc       # Unstructured grid file *_net.nc
GridEnclosureFile                 =                     # Enclosure file to clip outer parts from the grid *.pol
BedlevelFile                      =                     # Bedlevels points file e.g. *.xyz, only needed for bedlevtype not equal 3
DryPointsFile                     =                     # Dry points file *.xyz (third column dummy z values), or dry areas polygon file *.pol (third column 1/-1: inside/outside)
WaterLevIniFile                   =                     # Initial water levels sample file *.xyz
LandBoundaryFile                  =                     # Land boundaries file *.ldb, used for visualization
ThinDamFile                       =                     # Polyline file *_thd.pli, containing thin dams
Cutcelllist                       =                     # File with names of cutcell polygons, e.g. cutcellpolygons.lst
FixedWeirFile                     =                     # Polyline file *_fxw.pliz, containing fixed weirs with rows x, y, crest level, left ground level, right ground level
PillarFile                        =                     # Polyline file *_pillar.pliz, containing four colums with x, y, diameter and Cd coefficient
Gulliesfile                       =                     # Polyline file *_gul.pliz, containing lowest bed level along talweg x, y, z level
Roofsfile                         =                     # Polyline file *_rof.pliz, containing roofgutter heights x, y, z level
VertplizFile                      =                     # Vertical layering file *_vlay.pliz with rows x, y, Z, first Z, nr of layers, second Z, layer type
ProflocFile                       =                     # Channel profile location file *_proflocation.xyz with rows x, y, z, profile number ref
ProfdefFile                       =                     # Channel profile definition file *_profdefinition.def with definition for all profile numbers
ProfdefxyzFile                    =                     # Channel profile definition file _profdefinition.def with definition for all profile numbers
Uniformwidth1D                    = 2.                  # Uniform width for channel profiles not specified by profloc
Uniformheight1D                   = 3.                  # Uniform height for channel profiles not specified by profloc
Uniformtyp1Dstreetinlets          = -2                  # Uniform type street inlets
Uniformtyp1Droofgutterpipes       = -2                  # Uniform type roof gutter pipes
StructureFile                     =                     # File *.ini containing list of structures (pumps, weirs, gates and general structures)
ManholeFile                       =                     # File *.ini containing manholes
PipeFile                          =                     # File *.pliz containing pipe-based 'culverts'
ShipdefFile                       =                     # File *.shd containing ship definitions
WaterLevIni                       = 0.                  # Initial water level at missing s0 values
waterdepthini1D                   = 0.                  # Initial waterdepth in 1D
BedlevUni                         = -10.                # Uniform bed level used at missing z values if BedlevType > 2
BedlevType                        = 3                   # Bathymetry specification
                                                        # 1: at cell centers (from BathymetryFile)
                                                        # 2: at faces (from BathymetryFile)
                                                        # 3: at nodes, face levels mean of node values
                                                        # 4: at nodes, face levels min. of node values
                                                        # 5: at nodes, face levels max. of node values
                                                        # 6: at nodes, face levels max. of cell-center values
Blmeanbelow                       = -999.               # If not -999d0, below this level the cell center bed level is the mean of surrouding net nodes
Blminabove                        = -999.               # If not -999d0, above this level the cell center bed level is the min. of surrouding net nodes
Groundlayerthickness              = -999.               # Only in pipes: groundlayer thickness (m)
PartitionFile                     =                     # Domain partition polygon file *_part.pol for parallel run
AngLat                            = 0.                  # Angle of latitude S-N (deg), 0: no Coriolis
AngLon                            = 0.                  # Angle of longitude E-W (deg), 0: Greenwich, used in solar heat flux computation.
Conveyance2D                      = -1                  # -1: R=HU,0: R=H, 1: R=A/P, 2: K=analytic-1D conv, 3: K=analytic-2D conv
Slotw2D                           = 0.                  # -
Sillheightmin                     = 0.                  # Weir treatment only if both sills larger than this value (m)
Makeorthocenters                  = 0                   # Switch from circumcentres to orthocentres in geominit (i>=1: number of iterations, 0: do not use)
Dcenterinside                     = 1.                  # Limit cell center (1.0: in cell, 0.0: on c/g)
Bamin                             = 1.d-6               # Minimum grid cell area, in combination with cut cells
OpenBoundaryTolerance             = 3.                  # Search tolerance factor between boundary polyline and grid cells, in cell size units
AllowBndAtBifurcation             = 0                   # Allow 1d boundary node when connecting branch leads to bifurcation (1: yes, 0: no)
RenumberFlowNodes                 = 1                   # Renumber the flow nodes (1: yes, 0: no)
Kmx                               = 20                  # Maximum number of vertical layers
Layertype                         = 1                   # Vertical layer type (1: all sigma, 2: all z, 3: use VertplizFile)
Numtopsig                         = 0                   # Number of sigma layers in top of z-layer model
SigmaGrowthFactor                 = 1.                  # Layer thickness growth factor from bed up
StretchType                       = -1                  # Type of layer stretching, 0 = uniform, 1 = user defined, 2 = fixed level double exponential

[numerics]
CFLMax                            = 0.7                 # Maximum Courant number
Lincontin                         = 0                   # Default 0; Set to 1 for linearizing d(Hu)/dx; link to AdvecType
AdvecType                         = 33                  # Advection type (0: none, 1: Wenneker, 2: Wenneker q(uio-u), 3: Perot q(uio-u), 4: Perot q(ui-u), 5: Perot q(ui-u) without itself)
TimeStepType                      = 2                   # Time step handling (0: only transport, 1: transport + velocity update, 2: full implicit step-reduce, 3: step-Jacobi, 4: explicit)
Icoriolistype                     = 5                   # 0=No, 1=yes, if jsferic then spatially varying, if icoriolistype==6 then constant (anglat)
Limtyphu                          = 0                   # Limiter type for waterdepth in continuity eqn. (0: none, 1: minmod, 2: van Leer, 3: Kooren, 4: monotone central)
Limtypmom                         = 4                   # Limiter type for cell center advection velocity (0: none, 1: minmod, 2: van Leer, 3: Kooren, 4: monotone central)
Limtypsa                          = 4                   # Limiter type for salinity transport (0: none, 1: minmod, 2: van Leer, 3: Kooren, 4: monotone central)
TransportMethod                   = 1                   # Transport method (0: Herman's method, 1: transport module)
TransportTimestepping             = 1                   # Timestepping method in Transport module, 0 = global, 1 = local (default)
Vertadvtypsal                     = 5                   # Vertical advection type for salinity (0: none, 1: upwind explicit, 2: central explicit, 3: upwind implicit, 4: central implicit, 5: central implicit but upwind for neg. stratif., 6: higher order explicit, no Forester)
Vertadvtyptem                     = 6                   # Vertical advection type for temperature (0: none, 1: upwind explicit, 2: central explicit, 3: upwind implicit, 4: central implicit, 5: central implicit but upwind for neg. stratif., 6: higher order explicit, no Forester)
Cffacver                          = 0.                  # Factor for including (1-CFL) in HO term vertical   (0d0: no, 1d0: yes)
Jarhoxu                           = 0                   # Inlcude density gradient in advection term (0: no, 1: yes, 2: Also in barotrop and baroclin pressure term)
Horadvtypzlayer                   = 0                   # Horizontal advection treatment of z-layers (1: default, 2: sigma-like)
Zlayercenterbedvel                = 5                   # reconstruction of center velocity at half closed bedcells (0=no, 1: copy bed link velocities)
Zlayeratubybob                    = 0                   # Lowest connected cells governed by bob instead of by bL L/R
Icgsolver                         = 4                   # Solver type (1: sobekGS_OMP, 2: sobekGS_OMPthreadsafe, 3: sobekGS, 4: sobekGS + Saadilud, 5: parallel/global Saad, 6: parallel/Petsc, 7: parallel/GS)
Maxdegree                         = 6                   # Maximum degree in Gauss elimination
Noderivedtypes                    = 5                   # 0=use der. types. , 1 = less, 2 = lesser, 5 = also dealloc der. types
FixedWeirScheme                   = 0                   # Fixed weir scheme (0: none, 1: compact stencil, 2: whole tile lifted, full subgrid weir + factor)
FixedWeirContraction              = 1.                  # Fixed weir flow width contraction factor
Fixedweirfrictscheme              = 1                   # Fixed weir friction scheme (0: friction based on hu, 1: friction based on subgrid weir friction scheme)
Fixedweirtopwidth                 = 3.                  # Uniform width of the groyne part of fixed weirs
Fixedweirtopfrictcoef             = -999.               # Uniform friction coefficient of the groyne part of fixed weirs
Fixedweirtalud                    = 4.                  # Uniform talud slope of fixed weirs
Izbndpos                          = 0                   # Position of z boundary (0: D3Dflow, 1: on net boundary, 2: on specified polyline)
Tlfsmo                            = 3600.               # Fourier smoothing time (s) on water level boundaries
Logprofatubndin                   = 1                   # ubnds inflow: 0=uniform U1, 1 = log U1, 2 = user3D
Logprofkepsbndin                  = 0                   # inflow: 0=0 keps, 1 = log keps, 2 = user3D
Slopedrop2D                       = 0.                  # Apply drop losses only if local bed slope > Slopedrop2D, (<=0: no drop losses)
Drop3D                            = 1.                  # Apply droplosses in 3D if z upwind below bob + 2/3 hu*drop3D
Chkadvd                           = 0.1                 # Check advection terms if depth < chkadvdp, => less setbacks
Trsh_u1Lb                         = 0.                  # 2D bedfriction in 3D below this threshold (m)
Epshstem                          = 1.d-3               # Only compute heatflx + evap if depth > epshstem
Zwsbtol                           = 0.                  # tolerance for zws(kb-1) at bed
Keepzlayeringatbed                = 1                   #  bedlayerthickness = zlayerthickness at bed 0 or 1
Teta0                             = 0.55                # Theta of time integration (0.5 < theta < 1)
Qhrelax                           = 1.d-2               # Relaxation on Q-h open boundaries
Jbasqbnddownwindhs                = 0                   # Water depth scheme at discharge boundaries (0: original hu, 1: downwind hs)
cstbnd                            = 0                   # Delft-3D type velocity treatment near boundaries for small coastal models (1: yes, 0: no)
Maxitverticalforestersal          = 0                   # Forester iterations for salinity (0: no vertical filter for salinity, > 0: max nr of iterations)
Maxitverticalforestertem          = 0                   # Forester iterations for temperature (0: no vertical filter for temperature, > 0: max nr of iterations)
Turbulencemodel                   = 3                   # Turbulence model (0: none, 1: constant, 2: algebraic, 3: k-epsilon, 4: k-tau)
Turbulenceadvection               = 3                   # Turbulence advection (0: none, 3: horizontally explicit and vertically implicit)
Eddyviscositybedfacmax            = 0.                  # Limit eddy viscosity at bed )
AntiCreep                         = 0                   # Include anti-creep calculation (0: no, 1: yes)
Barocterm                         = 2                   # (original = 1, current = 2 )
Maxwaterleveldiff                 = 0.                  # upper bound (in m) on water level changes (<= 0: no bounds). Run will abort when violated.
Maxvelocitydiff                   = 0.                  # upper bound (in m/s) on velocity changes (<= 0: no bounds). Run will abort when violated.
MinTimestepBreak                  = 0.                  # smallest allowed timestep (in s), checked on a sliding average of several timesteps. Run will abort when violated.
Epshu                             = 1.d-4               # Threshold water depth for wet and dry cells
SobekDFM_umin                     = 0.                  # Minimal velocity treshold for weir losses in Sobek-DFM coupling.
SobekDFM_umin_method              = 0                   # Method for minimal velocity treshold for weir losses in Sobek-DFM coupling.
SobekDFM_Minimal_1d2d_Embankment  = 1.d-2               # Minimal crest height of 1D2D SOBEK-DFM embankments.
sobekDFM_relax                    = 0.1                 # Relaxation factor for SOBEK-DFM coupling algorithm.
Vertadvtypmom                     = 3                   # vertical advection for u1: 0: No, 3: Upwind implicit, 4: Central implicit, 5: QUICKEST implicit., 6: centerbased upwind expl
jaupwindsrc                       = 1                   # 1st-order upwind advection at sources/sinks (1) or higher-order (0)
jasfer3D                          = 0                   # corrections for spherical coordinates
vicouv_filter                     = 0.                  # artificial viscosity for filtering (m2/s)
LocSaltLev                        = 1.                  # salinity level for case of lock exchange
LocSaltMin                        = 5.                  # minimum salinity for case of lock exchange
LocSaltMax                        = 10.                 # maximum salinity for case of lock exchange
Numlimdt_baorg                    = 0                   # if previous numlimdt > Numlimdt_baorg keep original cell area ba in cutcell
Baorgfracmin                      = 0.                  # Cell area = max(orgcellarea*Baorgfracmin, cutcell area)

[physics]
UnifFrictCoef                     = 2.3d-2              # Uniform friction coefficient (0: no friction)
UnifFrictType                     = 1                   # Uniform friction type (0: Chezy, 1: Manning, 2: White-Colebrook, 3: idem, WAQUA style)
UnifFrictCoef1D                   = 2.3d-2              # Uniform friction coefficient in 1D links (0: no friction)
UnifFrictCoef1D2D                 = 2.3d-2              # Uniform friction coefficient in 1D links (0: no friction)
UnifFrictCoefLin                  = 0.                  # Uniform linear friction coefficient (0: no friction)
UnifFrictCoef1DgrLay              = 5.d-2               # Uniform ground layer friction coefficient for ocean models (m/s) (0: no friction)
Umodlin                           = 0.                  # Linear friction umod, for ifrctyp=4,5,6
Vicouv                            = 1.                  # Uniform horizontal eddy viscosity (m2/s)
Dicouv                            = 1.                  # Uniform horizontal eddy diffusivity (m2/s)
Vicoww                            = 5.d-5               # Uniform vertical eddy viscosity (m2/s)
Dicoww                            = 5.d-5               # Uniform vertical eddy diffusivity (m2/s)
Vicwminb                          = 0.                  # Minimum visc in prod and buoyancy term (m2/s)
Xlozmidov                         = 0.                  # Ozmidov length scale (m), default=0.0, no contribution of internal waves to vertical diffusion
Smagorinsky                       = 0.                  # Smagorinsky factor in horizontal turbulence, e.g. 0.15
Elder                             = 0.                  # Elder factor in horizontal turbulence
irov                              = 0                   # 0=free slip, 1 = partial slip using wall_ks
wall_ks                           = 0.                  # Wall roughness type (0: free slip, 1: partial slip using wall_ks)
Rhomean                           = 1000.               # Average water density (kg/m3)
Idensform                         = 0                   # Density calulation (0: uniform, 1: Eckart, 2: Unesco, 3: baroclinic case)
Ag                                = 9.813               # Gravitational acceleration
TidalForcing                      = 0                   # Tidal forcing, if jsferic=1 (0: no, 1: yes)
SelfAttractionLoading             = 0                   # Self attraction and loading (0=no, 1=yes, 2=only self attraction)
ITcap                             = 0.                  # Upper limit on internal tides dissipation (W/m^2)
Doodsonstart                      = 55.565              # TRIWAQ: 55.565, D3D: 57.555
Doodsonstop                       = 375.575             # TRIWAQ: 375.575, D3D: 275.555
Doodsoneps                        = 0.                  # TRIWAQ = 0.0  400 cmps , D3D = 0.03   60 cmps
VillemonteCD1                     = 1.                  # Calibration coefficient for Villemonte. Default = 1.0.  NB. For Bloemberg data set 0.8 is recommended.
[...]
Wrimap_numlimdt                   = 1                   # Write the number times a cell was Courant limiting to map file (1: yes, 0: no)
Wrimap_taucurrent                 = 1                   # Write the shear stress to map file (1: yes, 0: no)
Wrimap_chezy                      = 1                   # Write the chezy roughness to map file (1: yes, 0: no)
Wrimap_turbulence                 = 1                   # Write vicww, k and eps to map file (1: yes, 0: no)
Wrimap_wind                       = 1                   # Write wind velocities to map file (1: yes, 0: no)
Writek_CdWind                     = 1                   # Write wind friction coeffs to tek file (1: yes, 0: no)
Wrimap_DTcell                     = 0                   # Write time step per cell based on CFL (1: yes, 0: no)
Writepart_domain                  = 1                   # Write partition domain info. for postprocessing
Wrishp_crs                        = 0                   # Write grid-snapped cross sections to shapefile (1: yes, 0: no)
Wrishp_obs                        = 0                   # Write grid-snapped observation stations to shapefile (1: yes, 0: no)
Wrishp_weir                       = 0                   # Write grid-snapped weirs to shapefile (1: yes, 0: no)
Wrishp_thd                        = 0                   # Write grid-snapped thin dams to shapefile (1: yes, 0: no)
Wrishp_gate                       = 0                   # Write grid-snapped gates to shapefile (1: yes, 0: no)
Wrishp_emb                        = 0                   # Write grid-snapped 1d2d embankments to shapefile (1: yes, 0: no)
Wrishp_fxw                        = 0                   # Write grid-snapped fixed weirs to shapefile (1: yes, 0: no)
Wrishp_src                        = 0                   # Write grid-snapped source-sinks to shapefile (1: yes, 0: no)
Wrishp_pump                       = 0                   # Write grid-snapped pumps to shapefile (1: yes, 0: no)
Wrishp_dryarea                    = 0                   # Write a shape file for dry areas
WriteDFMinterpretedvalues         = 0                   # Write DFMinterpretedvalues (1: yes, 0: no)
MapOutputTimeVector               =                     # File (*.mpt) containing fixed map output times (s) w.r.t. RefDate
FullGridOutput                    = 0                   # Full grid output mode (0: compact, 1: full time-varying grid data)
EulerVelocities                   = 0                   # Euler velocities output (0: GLM, 1: Euler velocities)
Wrirst_bnd                        = 1                   # Write waterlevel, bedlevel and coordinates of boundaries to restart files

[particles]
ParticlesFile                     = 
AddTracer                         = 0                   # add tracer (1) or not (other)
StartTime                         = 0.                  # starttime (if >0)
TimeStep                          = 0.                  # time step (>0) or every computational time step
3Dtype                            = 0                   # 3D type: depth averaged (0) or free surface (1)

[processes]
SubstanceFile                     =                                                                                                                                                                                                                                                                #
AdditionalHistoryOutputFile       =                                                                                                                                                                                                                                                                #
ThetaVertical                     = 0.                  # theta vertical for waq
DtProcesses                       = 0.                  # waq processes time step
DtMassBalance                     = 0.                  # waq mass balance output time step
ProcessFluxIntegration            = 1                   # Process fluxes integration option (1: WAQ, 2: D-Flow FM)
** INFO   : **
** INFO   : Writing initial output to file(s)...
** DEBUG  : Closed NetCDF file 'FlowFM_net.nc.
** DEBUG  : Opened NetCDF file 'DFM_OUTPUT_flowfm\flowfm_his.nc' as #131072.
** INFO   : In waq_wri_model_files().
** INFO   : Opened file : DFM_DELWAQ_flowfm\flowfm.hyd
** INFO   : Closed file : DFM_DELWAQ_flowfm\flowfm.hyd
** DEBUG  : Opened NetCDF file 'DFM_DELWAQ_flowfm\flowfm_waqgeom.nc' as #458752.
** DEBUG  : Closed NetCDF file 'DFM_DELWAQ_flowfm\flowfm_waqgeom.nc.
** INFO   : Opened file : DFM_DELWAQ_flowfm\flowfm.bnd
** INFO   : Closed file : DFM_DELWAQ_flowfm\flowfm.bnd
** INFO   : Opened file : DFM_DELWAQ_flowfm\flowfm.poi
** INFO   : Opened file : DFM_DELWAQ_flowfm\flowfm.len
** INFO   : Opened file : DFM_DELWAQ_flowfm\flowfm.srf
** INFO   : Opened file : DFM_DELWAQ_flowfm\flowfm.srfold
** INFO   : Opened file : DFM_DELWAQ_flowfm\flowfm.atr
** INFO   :  In waq_wri_couple_files: #           0 , time:    586310400.000000
** INFO   : Opened file : DFM_DELWAQ_flowfm\flowfm.vol
** INFO   : Opened file : DFM_DELWAQ_flowfm\flowfm.tau
** INFO   : Opened file : DFM_DELWAQ_flowfm\flowfm.vdf
** INFO   : Done writing initial output to file(s).
** INFO   :               0d  0:1            396d 23:5              0d  0:0              0d  8:1     114334     0.0%     0.00000
** INFO   :  In waq_wri_couple_files: #           1 , time:    586314000.000000
** INFO   : Opened file : DFM_DELWAQ_flowfm\flowfm.are
** INFO   : Opened file : DFM_DELWAQ_flowfm\flowfm.flo
** INFO   :  In waq_wri_couple_files: #           2 , time:    586317600.000000
** INFO   :  In waq_wri_couple_files: #           3 , time:    586321200.000000
** INFO   :  In waq_wri_couple_files: #           4 , time:    586324800.000000
** INFO   : User interrupt
** INFO   : 
** INFO   : 
** INFO   : 
** INFO   : nr of netnodes         ( )  :                      512
** INFO   : nr of netlinks         ( )  :                     1008
** INFO   : nr of flownodes        ( )  :                      517
** INFO   : nr of openbnd cells    ( )  :                       20
** INFO   : nr of 1D-flownodes     ( )  :                        0
** INFO   : model area             (m2) :         0.3000000000E+07
** INFO   : model volume           (m3) :         0.2885538314E+08
** INFO   : 
** INFO   : 
** INFO   : 
** INFO   : nr of timesteps        ( )  :           870.0000000000
** INFO   : average timestep       (s)  :         39426.2068965517
** INFO   : 
** INFO   : 
** INFO   : simulation period      (d)  :           397.0000000000
** INFO   : total computation time (d)  :             0.0001350347
** INFO   : time modelinit         (d)  :             0.0000049537
** INFO   : time steps (+ plots)   (d)  :             0.0001300810
** INFO   : 
** INFO   : simulation period      (h)  :          9528.0000000000
** INFO   : total computation time (h)  :             0.0032408333
** INFO   : time modelinit         (h)  :             0.0001188889
** INFO   : time steps (+ plots)   (h)  :             0.0031219444
** INFO   : 
** INFO   : simulation period      (s)  :      34300800.0000000000
** INFO   : total computation time (s)  :            11.6670000000
** INFO   : time modelinit         (s)  :             0.4280000000
** INFO   : time steps (+ plots)   (s)  :            11.2390000000
** INFO   : 
** INFO   : 
** INFO   : time iniexternalforc.  (s)  :             0.0470000000
** INFO   : 
** INFO   : time inistep           (s)  :             4.6119999999
** INFO   : time setumod           (s)  :           117.6790000000
** INFO   : time furu              (s)  :             3.8210000000
** INFO   : time solve             (s)  :             0.4420000000
** INFO   : time setexternalforc.  (s)  :             0.0000000000
** INFO   : time setexternalfbnd.  (s)  :             0.0470000000
** INFO   : time steps             (s)  :             9.8290000000
** INFO   : fraction solve/steps   ( )  :             0.0449689694
** INFO   : total/(dnt*ndx)        (s)  :             0.0000249872
** INFO   : av nr of cont. it s1it ( )  :             0.0000000000
** INFO   : time transport [s]         :             0.1450000000
** INFO   : time processes [s]         :             0.0000000000
** INFO   : time debug     [s]         :             0.0000000000
** INFO   : 
** INFO   : 
** INFO   : 
** INFO   : Computation started  at: 16:28:02, 03-04-2019
** INFO   : Computation finished at: 16:28:13, 03-04-2019
** INFO   : 
** INFO   : simulation period      (h)  :          9528.0000000000
** INFO   : total time in timeloop (h)  :             0.0031219444
** INFO   : MPI    : no.
** INFO   : OpenMP : yes.         #threads max : 4
** INFO   : 
** INFO   : 
** INFO   : 
** INFO   : Opened file : DFM_OUTPUT_flowfm\flowfm_numlimdt.xyz
** INFO   : Closed file : DFM_OUTPUT_flowfm\flowfm_numlimdt.xyz
** INFO   : 
** INFO   : Display Velocity vectors
** INFO   : Velocity
** INFO   : Start of the computation time loop
** INFO   : Writing initial output to file(s)...
** INFO   : Done writing initial output to file(s).
** INFO   :  In waq_wri_couple_files: #           5 , time:    586328400.000000
** INFO   :  In waq_wri_couple_files: #           6 , time:    586332000.000000
** INFO   :  In waq_wri_couple_files: #           7 , time:    586335600.000000
** INFO   :  In waq_wri_couple_files: #           8 , time:    586339200.000000
** INFO   :  In waq_wri_couple_files: #           9 , time:    586342800.000000
** INFO   :  In waq_wri_couple_files: #          10 , time:    586346400.000000
** INFO   :  In waq_wri_couple_files: #          11 , time:    586350000.000000
** INFO   :  In waq_wri_couple_files: #          12 , time:    586353600.000000
** INFO   :  In waq_wri_couple_files: #          13 , time:    586357200.000000
** INFO   :  In waq_wri_couple_files: #          14 , time:    586360800.000000
** INFO   :  In waq_wri_couple_files: #          15 , time:    586364400.000000
** INFO   :  In waq_wri_couple_files: #          16 , time:    586368000.000000
** INFO   :  In waq_wri_couple_files: #          17 , time:    586371600.000000
** INFO   :  In waq_wri_couple_files: #          18 , time:    586375200.000000
** INFO   :  In waq_wri_couple_files: #          19 , time:    586378800.000000
** INFO   :  In waq_wri_couple_files: #          20 , time:    586382400.000000
** INFO   :  In waq_wri_couple_files: #          21 , time:    586386000.000000
** INFO   :  In waq_wri_couple_files: #          22 , time:    586389600.000000
** INFO   :               0d 22:0            396d  2:0              0d  0:0              0d  6:2     114072     0.2%    16.72340
** INFO   :  In waq_wri_couple_files: #          23 , time:    586393200.000000
** INFO   :  In waq_wri_couple_files: #          24 , time:    586396800.000000
** INFO   :  In waq_wri_couple_files: #          25 , time:    586400400.000000
** INFO   :  In waq_wri_couple_files: #          26 , time:    586404000.000000
** INFO   :  In waq_wri_couple_files: #          27 , time:    586407600.000000
** INFO   :  In waq_wri_couple_files: #          28 , time:    586411200.000000
** INFO   :  In waq_wri_couple_files: #          29 , time:    586414800.000000
** INFO   :  In waq_wri_couple_files: #          30 , time:    586418400.000000
** INFO   :  In waq_wri_couple_files: #          31 , time:    586422000.000000
** INFO   :  In waq_wri_couple_files: #          32 , time:    586425600.000000
** INFO   :  In waq_wri_couple_files: #          33 , time:    586429200.000000
** INFO   :  In waq_wri_couple_files: #          34 , time:    586432800.000000
** INFO   :  In waq_wri_couple_files: #          35 , time:    586436400.000000
** INFO   :               1d 11:0            395d 13:0              0d  0:0              0d  8:1     113916     0.4%    16.04388
** INFO   :  In waq_wri_couple_files: #          36 , time:    586440000.000000
** INFO   :  In waq_wri_couple_files: #          37 , time:    586443600.000000
** INFO   :  In waq_wri_couple_files: #          38 , time:    586447200.000000
** INFO   :  In waq_wri_couple_files: #          39 , time:    586450800.000000
** INFO   :  In waq_wri_couple_files: #          40 , time:    586454400.000000
** INFO   :  In waq_wri_couple_files: #          41 , time:    586458000.000000
** INFO   :  In waq_wri_couple_files: #          42 , time:    586461600.000000
** INFO   :  In waq_wri_couple_files: #          43 , time:    586465200.000000
** INFO   :  In waq_wri_couple_files: #          44 , time:    586468800.000000
** INFO   :  In waq_wri_couple_files: #          45 , time:    586472400.000000
** INFO   :  In waq_wri_couple_files: #          46 , time:    586476000.000000
** INFO   :  In waq_wri_couple_files: #          47 , time:    586479600.000000
** INFO   :  In waq_wri_couple_files: #          48 , time:    586483200.000000
** INFO   :  In waq_wri_couple_files: #          49 , time:    586486800.000000
** INFO   :               2d  1:5            394d 22:1              0d  0:0              0d  8:3     113738     0.5%    15.67821
** INFO   :  In waq_wri_couple_files: #          50 , time:    586490400.000000
** INFO   :  In waq_wri_couple_files: #          51 , time:    586494000.000000
** INFO   :  In waq_wri_couple_files: #          52 , time:    586497600.000000
** INFO   :  In waq_wri_couple_files: #          53 , time:    586501200.000000
** INFO   :  In waq_wri_couple_files: #          54 , time:    586504800.000000
** INFO   :  In waq_wri_couple_files: #          55 , time:    586508400.000000
** INFO   :  In waq_wri_couple_files: #          56 , time:    586512000.000000
** INFO   :  In waq_wri_couple_files: #          57 , time:    586515600.000000
** INFO   :  In waq_wri_couple_files: #          58 , time:    586519200.000000
** INFO   :  In waq_wri_couple_files: #          59 , time:    586522800.000000
** INFO   :  In waq_wri_couple_files: #          60 , time:    586526400.000000
** INFO   :  In waq_wri_couple_files: #          61 , time:    586530000.000000
** INFO   :               2d 13:5            394d 10:0              0d  0:0              0d  9:3     113593     0.6%    16.26776
** INFO   :  In waq_wri_couple_files: #          62 , time:    586533600.000000
** INFO   :  In waq_wri_couple_files: #          63 , time:    586537200.000000
** INFO   :  In waq_wri_couple_files: #          64 , time:    586540800.000000
** INFO   :  In waq_wri_couple_files: #          65 , time:    586544400.000000
** INFO   :  In waq_wri_couple_files: #          66 , time:    586548000.000000
** INFO   :  In waq_wri_couple_files: #          67 , time:    586551600.000000
** INFO   :               2d 19:2            394d  4:3              0d  0:0              0d 11:1     113527     0.7%    16.65265
** INFO   :  In waq_wri_couple_files: #          68 , time:    586555200.000000
** INFO   :               2d 20:4            394d  3:1              0d  0:0              0d 13:0     113511     0.7%    18.46154
** INFO   :  In waq_wri_couple_files: #          69 , time:    586558800.000000
** INFO   :  In waq_wri_couple_files: #          70 , time:    586562400.000000
** INFO   :  In waq_wri_couple_files: #          71 , time:    586566000.000000
** INFO   :               2d 23:2            394d  0:4              0d  0:0              0d 14:5     113480     0.7%    21.18451
** INFO   :  In waq_wri_couple_files: #          72 , time:    586569600.000000
** INFO   : User interrupt
** INFO   : 
** INFO   : 
** INFO   : 
** INFO   : nr of netnodes         ( )  :                      512
** INFO   : nr of netlinks         ( )  :                     1008
** INFO   : nr of flownodes        ( )  :                      517
** INFO   : nr of openbnd cells    ( )  :                       20
** INFO   : nr of 1D-flownodes     ( )  :                        0
** INFO   : model area             (m2) :         0.3000000000E+07
** INFO   : model volume           (m3) :         0.3082977853E+08
** INFO   : 
** INFO   : 
** INFO   : 
** INFO   : nr of timesteps        ( )  :         15875.0000000000
** INFO   : average timestep       (s)  :          2160.6803149606
** INFO   : 
** INFO   : 
** INFO   : simulation period      (d)  :           397.0000000000
** INFO   : total computation time (d)  :             0.0056322106
** INFO   : time modelinit         (d)  :             0.0000049537
** INFO   : time steps (+ plots)   (d)  :             0.0056272569
** INFO   : 
** INFO   : simulation period      (h)  :          9528.0000000000
** INFO   : total computation time (h)  :             0.1351730556
** INFO   : time modelinit         (h)  :             0.0001188889
** INFO   : time steps (+ plots)   (h)  :             0.1350541667
** INFO   : 
** INFO   : simulation period      (s)  :      34300800.0000000000
** INFO   : total computation time (s)  :           486.6230000000
** INFO   : time modelinit         (s)  :             0.4280000000
** INFO   : time steps (+ plots)   (s)  :           486.1950000000
** INFO   : 
** INFO   : 
** INFO   : time iniexternalforc.  (s)  :             0.0470000000
** INFO   : 
** INFO   : time inistep           (s)  :           153.7420000003
** INFO   : time setumod           (s)  :           206.0260000001
** INFO   : time furu              (s)  :           107.7479999994
** INFO   : time solve             (s)  :           130.7770000003
** INFO   : time setexternalforc.  (s)  :             0.0040000000
** INFO   : time setexternalfbnd.  (s)  :             0.4770000002
** INFO   : time steps             (s)  :           448.6629999998
** INFO   : fraction solve/steps   ( )  :             0.2914815797
** INFO   : total/(dnt*ndx)        (s)  :             0.0000592388
** INFO   : av nr of cont. it s1it ( )  :             0.0000000000
** INFO   : time transport [s]         :            14.5519999998
** INFO   : time processes [s]         :             0.0040000000
** INFO   : time debug     [s]         :             0.0000000000
** INFO   : 
** INFO   : 
** INFO   : 
** INFO   : Computation started  at: 16:28:13, 03-04-2019
** INFO   : Computation finished at: 16:36:08, 03-04-2019
** INFO   : 
** INFO   : simulation period      (h)  :          9528.0000000000
** INFO   : total time in timeloop (h)  :             0.1350541667
** INFO   : MPI    : no.
** INFO   : OpenMP : yes.         #threads max : 4
** INFO   : 
** INFO   : 
** INFO   : 
** INFO   : Opened file : DFM_OUTPUT_flowfm\flowfm_numlimdt.xyz
** INFO   : Closed file : DFM_OUTPUT_flowfm\flowfm_numlimdt.xyz
** INFO   : 
** INFO   : Start of the computation time loop
** INFO   : Writing initial output to file(s)...
** INFO   : Done writing initial output to file(s).
** INFO   :  In waq_wri_couple_files: #          73 , time:    586573200.000000
** INFO   :               3d  1:5            393d 22:1              0d  0:0              0d 16:2     113450     0.8%    12.26158
** INFO   :  In waq_wri_couple_files: #          74 , time:    586576800.000000
** INFO   :  In waq_wri_couple_files: #          75 , time:    586580400.000000
** INFO   :               3d  3:1            393d 20:4              0d  0:0              0d 18:2     113433     0.8%    17.70833
** INFO   :  In waq_wri_couple_files: #          76 , time:    586584000.000000
** INFO   :               3d  4:5            393d 19:0              0d  0:0              0d 20:0     113413     0.8%    25.64103
** INFO   :  In waq_wri_couple_files: #          77 , time:    586587600.000000
** INFO   :  In waq_wri_couple_files: #          78 , time:    586591200.000000
** INFO   :  In waq_wri_couple_files: #          79 , time:    586594800.000000
** INFO   :  In waq_wri_couple_files: #          80 , time:    586598400.000000
** INFO   :  In waq_wri_couple_files: #          81 , time:    586602000.000000
** INFO   :  In waq_wri_couple_files: #          82 , time:    586605600.000000
** INFO   :  In waq_wri_couple_files: #          83 , time:    586609200.000000
