

--------------------------------------------------------------------------------

Command: run Delft3D-FLOW
   Starting Delft3D-FLOW computation ...
--------------------------------------------------------------------------------
       Deltares, FLOW2D3D Version 6.02.13.7545M, Sep 13 2017, 21:16:30
       flow2d3d.dll entry Flow2D3D::Run
--------------------------------------------------------------------------------

Part I    - Initialisation Time Dep. Data module...    
            runid : col-hyd
Part II   - Creating intermediate files...             
Part III  - Initialisation of the Execution module...  
Part IV   - Reading complete MD-file...                     
Part V    - Initialisation & checking input...              
Part VI   - Initialisation & checking second part...        
Part VII  - Initialisation output...                        
 Flow exited abnormally
 Check diagnosis file
ABORT in FLOW2D3D: An exception occurred

child process exited abnormally
640
  Time to finish   1m 52s,    0.0% completed, time steps left  8639
  Time to finish  56s,    0.0% completed, time steps left  8638
  Time to finish  40s,    0.0% completed, time steps left  8637
  Time to finish  30s,    0.0% completed, time steps left  8636
  Time to finish  24s,    0.1% completed, time steps left  8635
  Time to finish  22s,    0.1% completed, time steps left  8634
  Time to finish  18s,    0.1% completed, time steps left  8633
  Time to finish  17s,    0.1% completed, time steps left  8632
  Time to finish  15s,    0.1% completed, time steps left  8631
  Time to finish  15s,    0.1% completed, time steps left  8630
  Time to finish  13s,    0.1% completed, time steps left  8629
  Time to finish  12s,    0.1% completed, time steps left  8628
  Time to finish  11s,    0.2% completed, time steps left  8627
  Time to finish  11s,    0.2% completed, time steps left  8626
  Time to finish  10s,    0.2% completed, time steps left  8625
  Time to finish  10s,    0.2% completed, time steps left  8624
  Time to finish   9s,    0.2% completed, time steps left  8623
  Time to finish   9s,    0.2% completed, time steps left  8622
  Time to finish   9s,    0.2% completed, time steps left  8621
  Time to finish   8s,    0.2% completed, time steps left  8620
  Time to finish   8s,    0.2% completed, time steps left  8619
  Time to finish   7s,    0.3% completed, time steps left  8618
  Time to finish   7s,    0.3% completed, time steps left  8617
  Time to finish   7s,    0.3% completed, time steps left  8616
  Time to finish   7s,    0.3% completed, time steps left  8615
  Time to finish   7s,    0.3% completed, time steps left  8614
  Time to finish   6s,    0.3% completed, time steps left  8613
  Time to finish   6s,    0.3% completed, time steps left  8612
  Time to finish   6s,    0.3% completed, time steps left  8611
  Time to finish   6s,    0.3% completed, time steps left  8610
  Time to finish   6s,    0.4% completed, time steps left  8609
  Time to finish   6s,    0.4% completed, time steps left  8608
  Time to finish   6s,    0.4% completed, time steps left  8607
  Time to finish   6s,    0.4% completed, time steps left  8606
  Time to finish   5s,    0.4% completed, time steps left  8605
  Time to finish   5s,    0.4% completed, time steps left  8604
  Time to finish   5s,    0.4% completed, time steps left  8603
  Time to finish   5s,    0.4% completed, time steps left  8602
  Time to finish   5s,    0.5% completed, time steps left  8601
  Time to finish   5s,    0.5% completed, time steps left  8600
  Time to finish   5s,    0.5% completed, time steps left  8599
  Time to finish   5s,    0.5% completed, time steps left  8598
  Time to finish   5s,    0.5% completed, time steps left  8597
  Time to finish   5s,    0.5% completed, time steps left  8596
  Time to finish   5s,    0.5% completed, time steps left  8595
  Time to finish   4s,    0.5% completed, time steps left  8594
  Time to finish   5s,    0.5% completed, time steps left  8593
  Time to finish   4s,    0.6% completed, time steps left  8592
  Time to finish   4s,    0.6% completed, time steps left  8591
  Time to finish   4s,    0.6% completed, time steps left  8590
  Time to finish   4s,    0.6% completed, time steps left  8589
  Time to finish   4s,    0.6% completed, time steps left  8588
  Time to finish   4s,    0.6% completed, time steps left  8587
  Time to finish   4s,    0.6% completed, time steps left  8586
  Time to finish   4s,    0.6% completed, time steps left  8585
  Time to finish   4s,    0.6% completed, time steps left  8584
  Time to finish   4s,    0.7% completed, time steps left  8583
  Time to finish   4s,    0.7% completed, time steps left  8582
  Time to finish   4s,    0.7% completed, time steps left  8581
  Time to finish   4s,    0.7% completed, time steps left  8580
  Time to finish   5s,    0.7% completed, time steps left  8579
  Time to finish   5s,    0.7% completed, time steps left  8578
  Time to finish   4s,    0.7% completed, time steps left  8577
  Time to finish   4s,    0.7% completed, time steps left  8576
  Time to finish   4s,    0.8% completed, time steps left  8575
  Time to finish   4s,    0.8% completed, time steps left  8574
  Time to finish   4s,    0.8% completed, time steps left  8573
  Time to finish   4s,    0.8% completed, time steps left  8572
  Time to finish   4s,    0.8% completed, time steps left  8571
  Time to finish   4s,    0.8% completed, time steps left  8570
  Time to finish   4s,    0.8% completed, time steps left  8569
  Time to finish   4s,    0.8% completed, time steps left  8568
  Time to finish   4s,    0.8% completed, time steps left  8567
  Time to finish   4s,    0.9% completed, time steps left  8566
  Time to finish   4s,    0.9% completed, time steps left  8565
  Time to finish   4s,    0.9% completed, time steps left  8564
  Time to finish   4s,    0.9% completed, time steps left  8563
  Time to finish   4s,    0.9% completed, time steps left  8562
  Time to finish   4s,    0.9% completed, time steps left  8561
  Time to finish   4s,    0.9% completed, time steps left  8560
  Time to finish   4s,    0.9% completed, time steps left  8559
  Time to finish   4s,    0.9% completed, time steps left  8558
  Time to finish   4s,    1.0% completed, time steps left  8557
  Time to finish   4s,    1.0% completed, time steps left  8556
  Time to finish   4s,    1.0% completed, time steps left  8555
  Time to finish   4s,    1.0% completed, time steps left  8554
  Time to finish   4s,    1.0% completed, time steps left  8553
  Time to finish   4s,    1.0% completed, time steps left  8552
  Time to finish   4s,    1.0% completed, time steps left  8551
  Time to finish   4s,    1.0% completed, time steps left  8550
  Time to finish   4s,    1.1% completed, time steps left  8549
  Time to finish   4s,    1.1% completed, time steps left  8548
  Time to finish   4s,    1.1% completed, time steps left  8547
  Time to finish   4s,    1.1% completed, time steps left  8546
  Time to finish   4s,    1.1% completed, time steps left  8545
  Time to finish   4s,    1.1% completed, time steps left  8544
  Time to finish   4s,    1.1% completed, time steps left  8543
  Time to finish   4s,    1.1% completed, time steps left  8542
  Time to finish   4s,    1.1% completed, time steps left  8541
  Time to finish   4s,    1.2% completed, time steps left  8540
  Time to finish   3s,    1.2% completed, time steps left  8539
  Time to finish   3s,    1.2% completed, time steps left  8538
  Time to finish   3s,    1.2% completed, time steps left  8537
  Time to finish   3s,    1.2% completed, time steps left  8536
  Time to finish   3s,    1.2% completed, time steps left  8535
  Time to finish   3s,    1.2% completed, time steps left  8534
  Time to finish   3s,    1.2% completed, time steps left  8533
  Time to finish   3s,    1.2% completed, time steps left  8532
  Time to finish   3s,    1.3% completed, time steps left  8531
  Time to finish   3s,    1.3% completed, time steps left  8530
  Time to finish   3s,    1.3% completed, time steps left  8529
  Time to finish   3s,    1.3% completed, time steps left  8528
  Time to finish   3s,    1.3% completed, time steps left  8527
  Time to finish   3s,    1.3% completed, time steps left  8526
  Time to finish   3s,    1.3% completed, time steps left  8525
  Time to finish   3s,    1.3% completed, time steps left  8524
  Time to finish   3s,    1.4% completed, time steps left  8523
  Time to finish   3s,    1.4% completed, time steps left  8522
  Time to finish   3s,    1.4% completed, time steps left  8521
  Time to finish   3s,    1.4% completed, time steps left  8520
  Time to finish   4s,    1.4% completed, time steps left  8519
  Time to finish   4s,    1.4% completed, time steps left  8518
  Time to finish   4s,    1.4% completed, time steps left  8517
  Time to finish   4s,    1.4% completed, time steps left  8516
  Time to finish   4s,    1.4% completed, time steps left  8515
  Time to finish   4s,    1.5% completed, time steps left  8514
  Time to finish   3s,    1.5% completed, time steps left  8513
  Time to finish   3s,    1.5% completed, time steps left  8512
  Time to finish   3s,    1.5% completed, time steps left  8511
  Time to finish   3s,    1.5% completed, time steps left  8510
  Time to finish   3s,    1.5% completed, time steps left  8509
  Time to finish   3s,    1.5% completed, time steps left  8508
  Time to finish   3s,    1.5% completed, time steps left  8507
  Time to finish   3s,    1.6% completed, time steps left  8506
  Time to finish   3s,    1.6% completed, time steps left  8505
  Time to finish   3s,    1.6% completed, time steps left  8504
  Time to finish   3s,    1.6% completed, time steps left  8503
  Time to finish   3s,    1.6% completed, time steps left  8502
  Time to finish   3s,    1.6% completed, time steps left  8501
  Time to finish   3s,    1.6% completed, time steps left  8500
  Time to finish   3s,    1.6% completed, time steps left  8499
  Time to finish   3s,    1.6% completed, time steps left  8498
  Time to finish   3s,    1.7% completed, time steps left  8497
  Time to finish   3s,    1.7% completed, time steps left  8496
  Time to finish   3s,    1.7% completed, time steps left  8495
  Time to finish   3s,    1.7% completed, time steps left  8494
  Time to finish   3s,    1.7% completed, time steps left  8493
  Time to finish   3s,    1.7% completed, time steps left  8492
  Time to finish   3s,    1.7% completed, time steps left  8491
  Time to finish   3s,    1.7% completed, time steps left  8490
  Time to finish   3s,    1.7% completed, time steps left  8489
  Time to finish   3s,    1.8% completed, time steps left  8488
  Time to finish   3s,    1.8% completed, time steps left  8487
  Time to finish   3s,    1.8% completed, time steps left  8486
  Time to finish   3s,    1.8% completed, time steps left  8485
  Time to finish   3s,    1.8% completed, time steps left  8484
  Time to finish   3s,    1.8% completed, time steps left  8483
  Time to finish   3s,    1.8% completed, time steps left  8482
  Time to finish   3s,    1.8% completed, time steps left  8481
  Time to finish   3s,    1.9% completed, time steps left  8480
  Time to finish   3s,    1.9% completed, time steps left  8479
  Time to finish   3s,    1.9% completed, time steps left  8478
  Time to finish   3s,    1.9% completed, time steps left  8477
  Time to finish   3s,    1.9% completed, time steps left  8476
  Time to finish   3s,    1.9% completed, time steps left  8475
  Time to finish   3s,    1.9% completed, time steps left  8474
  Time to finish   3s,    1.9% completed, time steps left  8473
  Time to finish   3s,    1.9% completed, time steps left  8472
  Time to finish   3s,    2.0% completed, time steps left  8471
  Time to finish   3s,    2.0% completed, time steps left  8470
  Time to finish   3s,    2.0% completed, time steps left  8469
  Time to finish   3s,    2.0% completed, time steps left  8468
  Time to finish   3s,    2.0% completed, time steps left  8467
  Time to finish   3s,    2.0% completed, time steps left  8466
  Time to finish   3s,    2.0% completed, time steps left  8465
  Time to finish   3s,    2.0% completed, time steps left  8464
  Time to finish   3s,    2.0% completed, time steps left  8463
  Time to finish   3s,    2.1% completed, time steps left  8462
  Time to finish   3s,    2.1% completed, time steps left  8461
  Time to finish   3s,    2.1% completed, time steps left  8460
  Time to finish   3s,    2.1% completed, time steps left  8459
  Time to finish   3s,    2.1% completed, time steps left  8458
  Time to finish   3s,    2.1% completed, time steps left  8457
  Time to finish   3s,    2.1% completed, time steps left  8456
  Time to finish   3s,    2.1% completed, time steps left  8455
  Time to finish   3s,    2.2% completed, time steps left  8454
  Time to finish   3s,    2.2% completed, time steps left  8453
  Time to finish   3s,    2.2% completed, time steps left  8452
  Time to finish   3s,    2.2% completed, time steps left  8451
  Time to finish   3s,    2.2% completed, time steps left  8450
  Time to finish   3s,    2.2% completed, time steps left  8449
  Time to finish   3s,    2.2% completed, time steps left  8448
  Time to finish   3s,    2.2% completed, time steps left  8447
  Time to finish   3s,    2.2% completed, time steps left  8446
  Time to finish   3s,    2.3% completed, time steps left  8445
  Time to finish   3s,    2.3% completed, time steps left  8444
  Time to finish   3s,    2.3% completed, time steps left  8443
  Time to finish   3s,    2.3% completed, time steps left  8442
  Time to finish   3s,    2.3% completed, time steps left  8441
  Time to finish   3s,    2.3% completed, time steps left  8440
  Time to finish   3s,    2.3% completed, time steps left  8439
  Time to finish   3s,    2.3% completed, time steps left  8438
  Time to finish   3s,    2.3% completed, time steps left  8437
  Time to finish   3s,    2.4% completed, time steps left  8436
  Time to finish   3s,    2.4% completed, time steps left  8435
  Time to finish   3s,    2.4% completed, time steps left  8434
  Time to finish   3s,    2.4% completed, time steps left  8433
  Time to finish   3s,    2.4% completed, time steps left  8432
  Time to finish   3s,    2.4% completed, time steps left  8431
  Time to finish   3s,    2.4% completed, time steps left  8430
  Time to finish   3s,    2.4% completed, time steps left  8429
  Time to finish   3s,    2.5% completed, time steps left  8428
  Time to finish   3s,    2.5% completed, time steps left  8427
  Time to finish   3s,    2.5% completed, time steps left  8426
  Time to finish   3s,    2.5% completed, time steps left  8425
  Time to finish   3s,    2.5% completed, time steps left  8424
  Time to finish   3s,    2.5% completed, time steps left  8423
  Time to finish   3s,    2.5% completed, time steps left  8422
  Time to finish   3s,    2.5% completed, time steps left  8421
  Time to finish   3s,    2.5% completed, time steps left  8420
  Time to finish   3s,    2.6% completed, time steps left  8419
  Time to finish   3s,    2.6% completed, time steps left  8418
  Time to finish   3s,    2.6% completed, time steps left  8417
  Time to finish   3s,    2.6% completed, time steps left  8416
  Time to finish   3s,    2.6% completed, time steps left  8415
  Time to finish   3s,    2.6% completed, time steps left  8414
  Time to finish   3s,    2.6% completed, time steps left  8413
  Time to finish   3s,    2.6% completed, time steps left  8412
  Time to finish   3s,    2.7% completed, time steps left  8411
  Time to finish   3s,    2.7% completed, time steps left  8410
  Time to finish   3s,    2.7% completed, time steps left  8409
  Time to finish   3s,    2.7% completed, time steps left  8408
  Time to finish   3s,    2.7% completed, time steps left  8407
  Time to finish   3s,    2.7% completed, time steps left  8406
  Time to finish   3s,    2.7% completed, time steps left  8405
  Time to finish   3s,    2.7% completed, time steps left  8404
  Time to finish   3s,    2.7% completed, time steps left  8403
  Time to finish   3s,    2.8% completed, time steps left  8402
  Time to finish   3s,    2.8% completed, time steps left  8401
  Time to finish   3s,    2.8% completed, time steps left  8400
  Time to finish   3s,    2.8% completed, time steps left  8399
  Time to finish   3s,    2.8% completed, time steps left  8398
  Time to finish   3s,    2.8% completed, time steps left  8397
  Time to finish   3s,    2.8% completed, time steps left  8396
  Time to finish   3s,    2.8% completed, time steps left  8395
  Time to finish   3s,    2.8% completed, time steps left  8394
  Time to finish   3s,    2.9% completed, time steps left  8393
  Time to finish   3s,    2.9% completed, time steps left  8392
  Time to finish   3s,    2.9% completed, time steps left  8391
  Time to finish   3s,    2.9% completed, time steps left  8390
  Time to finish   3s,    2.9% completed, time steps left  8389
  Time to finish   3s,    2.9% completed, time steps left  8388
  Time to finish   3s,    2.9% completed, time steps left  8387
  Time to finish   3s,    2.9% completed, time steps left  8386
  Time to finish   3s,    3.0% completed, time steps left  8385
  Time to finish   3s,    3.0% completed, time steps left  8384
  Time to finish   3s,    3.0% completed, time steps left  8383
  Time to finish   3s,    3.0% completed, time steps left  8382
  Time to finish   3s,    3.0% completed, time steps left  8381
  Time to finish   3s,    3.0% completed, time steps left  8380
  Time to finish   3s,    3.0% completed, time steps left  8379
  Time to finish   3s,    3.0% completed, time steps left  8378
  Time to finish   3s,    3.0% completed, time steps left  8377
  Time to finish   3s,    3.1% completed, time steps left  8376
  Time to finish   3s,    3.1% completed, time steps left  8375
  Time to finish   3s,    3.1% completed, time steps left  8374
  Time to finish   3s,    3.1% completed, time steps left  8373
  Time to finish   3s,    3.1% completed, time steps left  8372
  Time to finish   3s,    3.1% completed, time steps left  8371
  Time to finish   3s,    3.1% completed, time steps left  8370
  Time to finish   3s,    3.1% completed, time steps left  8369
  Time to finish   3s,    3.1% completed, time steps left  8368
  Time to finish   3s,    3.2% completed, time steps left  8367
  Time to finish   3s,    3.2% completed, time steps left  8366
  Time to finish   3s,    3.2% completed, time steps left  8365
  Time to finish   3s,    3.2% completed, time steps left  8364
  Time to finish   3s,    3.2% completed, time steps left  8363
  Time to finish   3s,    3.2% completed, time steps left  8362
  Time to finish   3s,    3.2% completed, time steps left  8361
  Time to finish   3s,    3.2% completed, time steps left  8360
  Time to finish   3s,    3.3% completed, time steps left  8359
  Time to finish   3s,    3.3% completed, time steps left  8358
  Time to finish   3s,    3.3% completed, time steps left  8357
  Time to finish   3s,    3.3% completed, time steps left  8356
  Time to finish   3s,    3.3% completed, time steps left  8355
  Time to finish   3s,    3.3% completed, time steps left  8354
  Time to finish   3s,    3.3% completed, time steps left  8353
  Time to finish   3s,    3.3% completed, time steps left  8352
  Time to finish   3s,    3.3% completed, time steps left  8351
  Time to finish   3s,    3.4% completed, time steps left  8350
  Time to finish   3s,    3.4% completed, time steps left  8349
  Time to finish   3s,    3.4% completed, time steps left  8348
  Time to finish   3s,    3.4% completed, time steps left  8347
  Time to finish   3s,    3.4% completed, time steps left  8346
  Time to finish   3s,    3.4% completed, time steps left  8345
  Time to finish   3s,    3.4% completed, time steps left  8344
  Time to finish   3s,    3.4% completed, time steps left  8343
  Time to finish   3s,    3.4% completed, time steps left  8342
  Time to finish   3s,    3.5% completed, time steps left  8341
  Time to finish   3s,    3.5% completed, time steps left  8340
  Time to finish   3s,    3.5% completed, time steps left  8339
  Time to finish   3s,    3.5% completed, time steps left  8338
  Time to finish   3s,    3.5% completed, time steps left  8337
  Time to finish   3s,    3.5% completed, time steps left  8336
  Time to finish   3s,    3.5% completed, time steps left  8335
  Time to finish   3s,    3.5% completed, time steps left  8334
  Time to finish   3s,    3.6% completed, time steps left  8333
  Time to finish   3s,    3.6% completed, time steps left  8332
  Time to finish   3s,    3.6% completed, time steps left  8331
  Time to finish   3s,    3.6% completed, time steps left  8330
  Time to finish   3s,    3.6% completed, time steps left  8329
  Time to finish   3s,    3.6% completed, time steps left  8328
  Time to finish   3s,    3.6% completed, time steps left  8327
  Time to finish   3s,    3.6% completed, time steps left  8326
  Time to finish   3s,    3.6% completed, time steps left  8325
  Time to finish   3s,    3.7% completed, time steps left  8324
  Time to finish   3s,    3.7% completed, time steps left  8323
  Time to finish   3s,    3.7% completed, time steps left  8322
  Time to finish   3s,    3.7% completed, time steps left  8321
  Time to finish   3s,    3.7% completed, time steps left  8320
  Time to finish   3s,    3.7% completed, time steps left  8319
  Time to finish   3s,    3.7% completed, time steps left  8318
  Time to finish   3s,    3.7% completed, time steps left  8317
  Time to finish   3s,    3.8% completed, time steps left  8316
  Time to finish   3s,    3.8% completed, time steps left  8315
  Time to finish   3s,    3.8% completed, time steps left  8314
  Time to finish   3s,    3.8% completed, time steps left  8313
  Time to finish   3s,    3.8% completed, time steps left  8312
  Time to finish   3s,    3.8% completed, time steps left  8311
  Time to finish   3s,    3.8% completed, time steps left  8310
  Time to finish   3s,    3.8% completed, time steps left  8309
  Time to finish   3s,    3.8% completed, time steps left  8308
  Time to finish   3s,    3.9% completed, time steps left  8307
  Time to finish   3s,    3.9% completed, time steps left  8306
  Time to finish   3s,    3.9% completed, time steps left  8305
  Time to finish   3s,    3.9% completed, time steps left  8304
  Time to finish   3s,    3.9% completed, time steps left  8303
  Time to finish   3s,    3.9% completed, time steps left  8302
  Time to finish   3s,    3.9% completed, time steps left  8301
  Time to finish   3s,    3.9% completed, time steps left  8300
  Time to finish   3s,    3.9% completed, time steps left  8299
  Time to finish   3s,    4.0% completed, time steps left  8298
  Time to finish   3s,    4.0% completed, time steps left  8297
  Time to finish   3s,    4.0% completed, time steps left  8296
  Time to finish   3s,    4.0% completed, time steps left  8295
  Time to finish   3s,    4.0% completed, time steps left  8294
  Time to finish   3s,    4.0% completed, time steps left  8293
  Time to finish   3s,    4.0% completed, time steps left  8292
  Time to finish   3s,    4.0% completed, time steps left  8291
  Time to finish   3s,    4.1% completed, time steps left  8290
  Time to finish   3s,    4.1% completed, time steps left  8289
  Time to finish   3s,    4.1% completed, time steps left  8288
  Time to finish   3s,    4.1% completed, time steps left  8287
  Time to finish   3s,    4.1% completed, time steps left  8286
  Time to finish   3s,    4.1% completed, time steps left  8285
  Time to finish   3s,    4.1% completed, time steps left  8284
  Time to finish   3s,    4.1% completed, time steps left  8283
  Time to finish   3s,    4.1% completed, time steps left  8282
  Time to finish   3s,    4.2% completed, time steps left  8281
  Time to finish   3s,    4.2% completed, time steps left  8280
  Time to finish   3s,    4.2% completed, time steps left  8279
  Time to finish   3s,    4.2% completed, time steps left  8278
  Time to finish   3s,    4.2% completed, time steps left  8277
  Time to finish   3s,    4.2% completed, time steps left  8276
  Time to finish   3s,    4.2% completed, time steps left  8275
  Time to finish   3s,    4.2% completed, time steps left  8274
  Time to finish   3s,    4.2% completed, time steps left  8273
  Time to finish   3s,    4.3% completed, time steps left  8272
  Time to finish   3s,    4.3% completed, time steps left  8271
  Time to finish   3s,    4.3% completed, time steps left  8270
  Time to finish   3s,    4.3% completed, time steps left  8269
  Time to finish   3s,    4.3% completed, time steps left  8268
  Time to finish   3s,    4.3% completed, time steps left  8267
  Time to finish   3s,    4.3% completed, time steps left  8266
  Time to finish   3s,    4.3% completed, time steps left  8265
  Time to finish   3s,    4.4% completed, time steps left  8264
  Time to finish   3s,    4.4% completed, time steps left  8263
  Time to finish   3s,    4.4% completed, time steps left  8262
  Time to finish   3s,    4.4% completed, time steps left  8261
  Time to finish   3s,    4.4% completed, time steps left  8260
  Time to finish   3s,    4.4% completed, time steps left  8259
  Time to finish   3s,    4.4% completed, time steps left  8258
  Time to finish   3s,    4.4% completed, time steps left  8257
  Time to finish   3s,    4.4% completed, time steps left  8256
  Time to finish   3s,    4.5% completed, time steps left  8255
  Time to finish   3s,    4.5% completed, time steps left  8254
  Time to finish   3s,    4.5% completed, time steps left  8253
  Time to finish   3s,    4.5% completed, time steps left  8252
  Time to finish   3s,    4.5% completed, time steps left  8251
  Time to finish   3s,    4.5% completed, time steps left  8250
  Time to finish   3s,    4.5% completed, time steps left  8249
  Time to finish   3s,    4.5% completed, time steps left  8248
  Time to finish   3s,    4.5% completed, time steps left  8247
  Time to finish   3s,    4.6% completed, time steps left  8246
  Time to finish   3s,    4.6% completed, time steps left  8245
  Time to finish   3s,    4.6% completed, time steps left  8244
  Time to finish   3s,    4.6% completed, time steps left  8243
  Time to finish   3s,    4.6% completed, time steps left  8242
  Time to finish   3s,    4.6% completed, time steps left  8241
  Time to finish   3s,    4.6% completed, time steps left  8240
  Time to finish   3s,    4.6% completed, time steps left  8239
  Time to finish   3s,    4.7% completed, time steps left  8238
  Time to finish   3s,    4.7% completed, time steps left  8237
  Time to finish   3s,    4.7% completed, time steps left  8236
  Time to finish   3s,    4.7% completed, time steps left  8235
  Time to finish   3s,    4.7% completed, time steps left  8234
  Time to finish   3s,    4.7% completed, time steps left  8233
  Time to finish   3s,    4.7% completed, time steps left  8232
  Time to finish   3s,    4.7% completed, time steps left  8231
  Time to finish   3s,    4.7% completed, time steps left  8230
  Time to finish   3s,    4.8% completed, time steps left  8229
  Time to finish   3s,    4.8% completed, time steps left  8228
  Time to finish   3s,    4.8% completed, time steps left  8227
  Time to finish   3s,    4.8% completed, time steps left  8226
  Time to finish   3s,    4.8% completed, time steps left  8225
  Time to finish   3s,    4.8% completed, time steps left  8224
  Time to finish   3s,    4.8% completed, time steps left  8223
  Time to finish   3s,    4.8% completed, time steps left  8222
  Time to finish   3s,    4.8% completed, time steps left  8221
  Time to finish   3s,    4.9% completed, time steps left  8220
  Time to finish   3s,    4.9% completed, time steps left  8219
  Time to finish   3s,    4.9% completed, time steps left  8218
  Time to finish   3s,    4.9% completed, time steps left  8217
  Time to finish   3s,    4.9% completed, time steps left  8216
  Time to finish   3s,    4.9% completed, time steps left  8215
  Time to finish   3s,    4.9% completed, time steps left  8214
  Time to finish   3s,    4.9% completed, time steps left  8213
  Time to finish   3s,    5.0% completed, time steps left  8212
  Time to finish   3s,    5.0% completed, time steps left  8211
  Time to finish   3s,    5.0% completed, time steps left  8210
  Time to finish   3s,    5.0% completed, time steps left  8209
  Time to finish   3s,    5.0% completed, time steps left  8208
  Time to finish   3s,    5.0% completed, time steps left  8207
  Time to finish   3s,    5.0% completed, time steps left  8206
  Time to finish   3s,    5.0% completed, time steps left  8205
  Time to finish   3s,    5.0% completed, time steps left  8204
  Time to finish   3s,    5.1% completed, time steps left  8203
  Time to finish   3s,    5.1% completed, time steps left  8202
  Time to finish   3s,    5.1% completed, time steps left  8201
  Time to finish   3s,    5.1% completed, time steps left  8200
  Time to finish   3s,    5.1% completed, time steps left  8199
  Time to finish   3s,    5.1% completed, time steps left  8198
  Time to finish   3s,    5.1% completed, time steps left  8197
  Time to finish   3s,    5.1% completed, time steps left  8196
  Time to finish   3s,    5.2% completed, time steps left  8195
  Time to finish   3s,    5.2% completed, time steps left  8194
  Time to finish   3s,    5.2% completed, time steps left  8193
  Time to finish   3s,    5.2% completed, time steps left  8192
  Time to finish   3s,    5.2% completed, time steps left  8191
  Time to finish   3s,    5.2% completed, time steps left  8190
  Time to finish   3s,    5.2% completed, time steps left  8189
  Time to finish   3s,    5.2% completed, time steps left  8188
  Time to finish   3s,    5.2% completed, time steps left  8187
  Time to finish   3s,    5.3% completed, time steps left  8186
  Time to finish   3s,    5.3% completed, time steps left  8185
  Time to finish   3s,    5.3% completed, time steps left  8184
  Time to finish   3s,    5.3% completed, time steps left  8183
  Time to finish   3s,    5.3% completed, time steps left  8182
  Time to finish   3s,    5.3% completed, time steps left  8181
  Time to finish   3s,    5.3% completed, time steps left  8180
  Time to finish   3s,    5.3% completed, time steps left  8179
  Time to finish   3s,    5.3% completed, time steps left  8178
  Time to finish   3s,    5.4% completed, time steps left  8177
  Time to finish   3s,    5.4% completed, time steps left  8176
  Time to finish   3s,    5.4% completed, time steps left  8175
  Time to finish   3s,    5.4% completed, time steps left  8174
  Time to finish   3s,    5.4% completed, time steps left  8173
  Time to finish   3s,    5.4% completed, time steps left  8172
  Time to finish   3s,    5.4% completed, time steps left  8171
  Time to finish   3s,    5.4% completed, time steps left  8170
  Time to finish   3s,    5.5% completed, time steps left  8169
  Time to finish   3s,    5.5% completed, time steps left  8168
  Time to finish   3s,    5.5% completed, time steps left  8167
  Time to finish   3s,    5.5% completed, time steps left  8166
  Time to finish   3s,    5.5% completed, time steps left  8165
  Time to finish   3s,    5.5% completed, time steps left  8164
  Time to finish   3s,    5.5% completed, time steps left  8163
  Time to finish   3s,    5.5% completed, time steps left  8162
  Time to finish   3s,    5.5% completed, time steps left  8161
  Time to finish   3s,    5.6% completed, time steps left  8160
  Time to finish   3s,    5.6% completed, time steps left  8159
  Time to finish   3s,    5.6% completed, time steps left  8158
  Time to finish   3s,    5.6% completed, time steps left  8157
  Time to finish   3s,    5.6% completed, time steps left  8156
  Time to finish   3s,    5.6% completed, time steps left  8155
  Time to finish   3s,    5.6% completed, time steps left  8154
  Time to finish   3s,    5.6% completed, time steps left  8153
  Time to finish   3s,    5.6% completed, time steps left  8152
  Time to finish   3s,    5.7% completed, time steps left  8151
  Time to finish   3s,    5.7% completed, time steps left  8150
  Time to finish   3s,    5.7% completed, time steps left  8149
  Time to finish   3s,    5.7% completed, time steps left  8148
  Time to finish   3s,    5.7% completed, time steps left  8147
  Time to finish   3s,    5.7% completed, time steps left  8146
  Time to finish   3s,    5.7% completed, time steps left  8145
  Time to finish   3s,    5.7% completed, time steps left  8144
  Time to finish   3s,    5.8% completed, time steps left  8143
  Time to finish   3s,    5.8% completed, time steps left  8142
  Time to finish   3s,    5.8% completed, time steps left  8141
  Time to finish   3s,    5.8% completed, time steps left  8140
  Time to finish   3s,    5.8% completed, time steps left  8139
  Time to finish   3s,    5.8% completed, time steps left  8138
  Time to finish   3s,    5.8% completed, time steps left  8137
  Time to finish   3s,    5.8% completed, time steps left  8136
  Time to finish   3s,    5.8% completed, time steps left  8135
  Time to finish   3s,    5.9% completed, time steps left  8134
  Time to finish   3s,    5.9% completed, time steps left  8133
  Time to finish   3s,    5.9% completed, time steps left  8132
  Time to finish   3s,    5.9% completed, time steps left  8131
  Time to finish   3s,    5.9% completed, time steps left  8130
  Time to finish   3s,    5.9% completed, time steps left  8129
  Time to finish   3s,    5.9% completed, time steps left  8128
  Time to finish   3s,    5.9% completed, time steps left  8127
  Time to finish   3s,    5.9% completed, time steps left  8126
  Time to finish   3s,    6.0% completed, time steps left  8125
  Time to finish   3s,    6.0% completed, time steps left  8124
  Time to finish   3s,    6.0% completed, time steps left  8123
  Time to finish   3s,    6.0% completed, time steps left  8122
  Time to finish   3s,    6.0% completed, time steps left  8121
  Time to finish   3s,    6.0% completed, time steps left  8120
  Time to finish   3s,    6.0% completed, time steps left  8119
  Time to finish   3s,    6.0% completed, time steps left  8118
  Time to finish   3s,    6.1% completed, time steps left  8117
  Time to finish   3s,    6.1% completed, time steps left  8116
  Time to finish   3s,    6.1% completed, time steps left  8115
  Time to finish   3s,    6.1% completed, time steps left  8114
  Time to finish   3s,    6.1% completed, time steps left  8113
  Time to finish   3s,    6.1% completed, time steps left  8112
  Time to finish   3s,    6.1% completed, time steps left  8111
  Time to finish   3s,    6.1% completed, time steps left  8110
  Time to finish   3s,    6.1% completed, time steps left  8109
  Time to finish   3s,    6.2% completed, time steps left  8108
  Time to finish   3s,    6.2% completed, time steps left  8107
  Time to finish   3s,    6.2% completed, time steps left  8106
  Time to finish   3s,    6.2% completed, time steps left  8105
  Time to finish   3s,    6.2% completed, time steps left  8104
  Time to finish   3s,    6.2% completed, time steps left  8103
  Time to finish   3s,    6.2% completed, time steps left  8102
  Time to finish   3s,    6.2% completed, time steps left  8101
  Time to finish   3s,    6.2% completed, time steps left  8100
  Time to finish   3s,    6.3% completed, time steps left  8099
  Time to finish   3s,    6.3% completed, time steps left  8098
  Time to finish   3s,    6.3% completed, time steps left  8097
  Time to finish   3s,    6.3% completed, time steps left  8096
  Time to finish   3s,    6.3% completed, time steps left  8095
  Time to finish   3s,    6.3% completed, time steps left  8094
  Time to finish   3s,    6.3% completed, time steps left  8093
  Time to finish   3s,    6.3% completed, time steps left  8092
  Time to finish   3s,    6.4% completed, time steps left  8091
  Time to finish   3s,    6.4% completed, time steps left  8090
  Time to finish   3s,    6.4% completed, time steps left  8089
  Time to finish   3s,    6.4% completed, time steps left  8088
  Time to finish   3s,    6.4% completed, time steps left  8087
  Time to finish   3s,    6.4% completed, time steps left  8086
  Time to finish   3s,    6.4% completed, time steps left  8085
  Time to finish   3s,    6.4% completed, time steps left  8084
  Time to finish   3s,    6.4% completed, time steps left  8083
  Time to finish   3s,    6.5% completed, time steps left  8082
  Time to finish   3s,    6.5% completed, time steps left  8081
  Time to finish   3s,    6.5% completed, time steps left  8080
  Time to finish   3s,    6.5% completed, time steps left  8079
  Time to finish   3s,    6.5% completed, time steps left  8078
  Time to finish   3s,    6.5% completed, time steps left  8077
  Time to finish   3s,    6.5% completed, time steps left  8076
  Time to finish   3s,    6.5% completed, time steps left  8075
  Time to finish   3s,    6.6% completed, time steps left  8074
  Time to finish   3s,    6.6% completed, time steps left  8073
  Time to finish   3s,    6.6% completed, time steps left  8072
  Time to finish   3s,    6.6% completed, time steps left  8071
  Time to finish   3s,    6.6% completed, time steps left  8070
  Time to finish   3s,    6.6% completed, time steps left  8069
  Time to finish   3s,    6.6% completed, time steps left  8068
  Time to finish   3s,    6.6% completed, time steps left  8067
  Time to finish   3s,    6.6% completed, time steps left  8066
  Time to finish   3s,    6.7% completed, time steps left  8065
  Time to finish   3s,    6.7% completed, time steps left  8064
  Time to finish   3s,    6.7% completed, time steps left  8063
  Time to finish   3s,    6.7% completed, time steps left  8062
  Time to finish   3s,    6.7% completed, time steps left  8061
  Time to finish   3s,    6.7% completed, time steps left  8060
  Time to finish   3s,    6.7% completed, time steps left  8059
  Time to finish   3s,    6.7% completed, time steps left  8058
  Time to finish   3s,    6.7% completed, time steps left  8057
  Time to finish   3s,    6.8% completed, time steps left  8056
  Time to finish   3s,    6.8% completed, time steps left  8055
  Time to finish   3s,    6.8% completed, time steps left  8054
  Time to finish   3s,    6.8% completed, time steps left  8053
  Time to finish   3s,    6.8% completed, time steps left  8052
  Time to finish   3s,    6.8% completed, time steps left  8051
  Time to finish   3s,    6.8% completed, time steps left  8050
  Time to finish   3s,    6.8% completed, time steps left  8049
  Time to finish   3s,    6.9% completed, time steps left  8048
  Time to finish   3s,    6.9% completed, time steps left  8047
  Time to finish   3s,    6.9% completed, time steps left  8046
  Time to finish   3s,    6.9% completed, time steps left  8045
  Time to finish   3s,    6.9% completed, time steps left  8044
  Time to finish   3s,    6.9% completed, time steps left  8043
  Time to finish   3s,    6.9% completed, time steps left  8042
  Time to finish   3s,    6.9% completed, time steps left  8041
  Time to finish   3s,    6.9% completed, time steps left  8040
  Time to finish   3s,    7.0% completed, time steps left  8039
  Time to finish   3s,    7.0% completed, time steps left  8038
  Time to finish   3s,    7.0% completed, time steps left  8037
  Time to finish   3s,    7.0% completed, time steps left  8036
  Time to finish   3s,    7.0% completed, time steps left  8035
  Time to finish   3s,    7.0% completed, time steps left  8034
  Time to finish   3s,    7.0% completed, time steps left  8033
  Time to finish   3s,    7.0% completed, time steps left  8032
  Time to finish   3s,    7.0% completed, time steps left  8031
  Time to finish   3s,    7.1% completed, time steps left  8030
  Time to finish   3s,    7.1% completed, time steps left  8029
  Time to finish   3s,    7.1% completed, time steps left  8028
  Time to finish   3s,    7.1% completed, time steps left  8027
  Time to finish   3s,    7.1% completed, time steps left  8026
  Time to finish   3s,    7.1% completed, time steps left  8025
  Time to finish   3s,    7.1% completed, time steps left  8024
  Time to finish   3s,    7.1% completed, time steps left  8023
  Time to finish   3s,    7.2% completed, time steps left  8022
  Time to finish   3s,    7.2% completed, time steps left  8021
  Time to finish   3s,    7.2% completed, time steps left  8020
  Time to finish   3s,    7.2% completed, time steps left  8019
  Time to finish   3s,    7.2% completed, time steps left  8018
  Time to finish   3s,    7.2% completed, time steps left  8017
  Time to finish   3s,    7.2% completed, time steps left  8016
  Time to finish   3s,    7.2% completed, time steps left  8015
  Time to finish   3s,    7.2% completed, time steps left  8014
  Time to finish   3s,    7.3% completed, time steps left  8013
  Time to finish   3s,    7.3% completed, time steps left  8012
  Time to finish   3s,    7.3% completed, time steps left  8011
  Time to finish   3s,    7.3% completed, time steps left  8010
  Time to finish   3s,    7.3% completed, time steps left  8009
  Time to finish   3s,    7.3% completed, time steps left  8008
  Time to finish   3s,    7.3% completed, time steps left  8007
  Time to finish   3s,    7.3% completed, time steps left  8006
  Time to finish   3s,    7.3% completed, time steps left  8005
  Time to finish   3s,    7.4% completed, time steps left  8004
  Time to finish   3s,    7.4% completed, time steps left  8003
  Time to finish   3s,    7.4% completed, time steps left  8002
  Time to finish   3s,    7.4% completed, time steps left  8001
  Time to finish   3s,    7.4% completed, time steps left  8000
  Time to finish   3s,    7.4% completed, time steps left  7999
  Time to finish   3s,    7.4% completed, time steps left  7998
  Time to finish   3s,    7.4% completed, time steps left  7997
  Time to finish   3s,    7.5% completed, time steps left  7996
  Time to finish   3s,    7.5% completed, time steps left  7995
  Time to finish   3s,    7.5% completed, time steps left  7994
  Time to finish   3s,    7.5% completed, time steps left  7993
  Time to finish   3s,    7.5% completed, time steps left  7992
  Time to finish   3s,    7.5% completed, time steps left  7991
  Time to finish   3s,    7.5% completed, time steps left  7990
  Time to finish   3s,    7.5% completed, time steps left  7989
  Time to finish   3s,    7.5% completed, time steps left  7988
  Time to finish   3s,    7.6% completed, time steps left  7987
  Time to finish   3s,    7.6% completed, time steps left  7986
  Time to finish   3s,    7.6% completed, time steps left  7985
  Time to finish   3s,    7.6% completed, time steps left  7984
  Time to finish   3s,    7.6% completed, time steps left  7983
  Time to finish   3s,    7.6% completed, time steps left  7982
  Time to finish   3s,    7.6% completed, time steps left  7981
  Time to finish   3s,    7.6% completed, time steps left  7980
  Time to finish   3s,    7.7% completed, time steps left  7979
  Time to finish   3s,    7.7% completed, time steps left  7978
  Time to finish   3s,    7.7% completed, time steps left  7977
  Time to finish   3s,    7.7% completed, time steps left  7976
  Time to finish   3s,    7.7% completed, time steps left  7975
  Time to finish   3s,    7.7% completed, time steps left  7974
  Time to finish   3s,    7.7% completed, time steps left  7973
  Time to finish   3s,    7.7% completed, time steps left  7972
  Time to finish   3s,    7.7% completed, time steps left  7971
  Time to finish   3s,    7.8% completed, time steps left  7970
  Time to finish   3s,    7.8% completed, time steps left  7969
  Time to finish   3s,    7.8% completed, time steps left  7968
  Time to finish   3s,    7.8% completed, time steps left  7967
  Time to finish   3s,    7.8% completed, time steps left  7966
  Time to finish   3s,    7.8% completed, time steps left  7965
  Time to finish   3s,    7.8% completed, time steps left  7964
  Time to finish   3s,    7.8% completed, time steps left  7963
  Time to finish   3s,    7.8% completed, time steps left  7962
  Time to finish   3s,    7.9% completed, time steps left  7961
  Time to finish   3s,    7.9% completed, time steps left  7960
  Time to finish   3s,    7.9% completed, time steps left  7959
  Time to finish   3s,    7.9% completed, time steps left  7958
  Time to finish   3s,    7.9% completed, time steps left  7957
  Time to finish   3s,    7.9% completed, time steps left  7956
  Time to finish   3s,    7.9% completed, time steps left  7955
  Time to finish   3s,    7.9% completed, time steps left  7954
  Time to finish   3s,    8.0% completed, time steps left  7953
  Time to finish   3s,    8.0% completed, time steps left  7952
  Time to finish   3s,    8.0% completed, time steps left  7951
  Time to finish   3s,    8.0% completed, time steps left  7950
  Time to finish   3s,    8.0% completed, time steps left  7949
  Time to finish   3s,    8.0% completed, time steps left  7948
  Time to finish   3s,    8.0% completed, time steps left  7947
  Time to finish   3s,    8.0% completed, time steps left  7946
  Time to finish   3s,    8.0% completed, time steps left  7945
  Time to finish   3s,    8.1% completed, time steps left  7944
  Time to finish   3s,    8.1% completed, time steps left  7943
  Time to finish   3s,    8.1% completed, time steps left  7942
  Time to finish   3s,    8.1% completed, time steps left  7941
  Time to finish   3s,    8.1% completed, time steps left  7940
  Time to finish   3s,    8.1% completed, time steps left  7939
  Time to finish   3s,    8.1% completed, time steps left  7938
  Time to finish   3s,    8.1% completed, time steps left  7937
  Time to finish   3s,    8.1% completed, time steps left  7936
  Time to finish   3s,    8.2% completed, time steps left  7935
  Time to finish   3s,    8.2% completed, time steps left  7934
  Time to finish   3s,    8.2% completed, time steps left  7933
  Time to finish   3s,    8.2% completed, time steps left  7932
  Time to finish   3s,    8.2% completed, time steps left  7931
  Time to finish   3s,    8.2% completed, time steps left  7930
  Time to finish   3s,    8.2% completed, time steps left  7929
  Time to finish   3s,    8.2% completed, time steps left  7928
  Time to finish   3s,    8.3% completed, time steps left  7927
  Time to finish   3s,    8.3% completed, time steps left  7926
  Time to finish   3s,    8.3% completed, time steps left  7925
  Time to finish   3s,    8.3% completed, time steps left  7924
  Time to finish   3s,    8.3% completed, time steps left  7923
  Time to finish   3s,    8.3% completed, time steps left  7922
  Time to finish   3s,    8.3% completed, time steps left  7921
  Time to finish   3s,    8.3% completed, time steps left  7920
  Time to finish   3s,    8.3% completed, time steps left  7919
  Time to finish   3s,    8.4% completed, time steps left  7918
  Time to finish   3s,    8.4% completed, time steps left  7917
  Time to finish   3s,    8.4% completed, time steps left  7916
  Time to finish   3s,    8.4% completed, time steps left  7915
  Time to finish   3s,    8.4% completed, time steps left  7914
  Time to finish   3s,    8.4% completed, time steps left  7913
  Time to finish   3s,    8.4% completed, time steps left  7912
  Time to finish   3s,    8.4% completed, time steps left  7911
  Time to finish   3s,    8.4% completed, time steps left  7910
  Time to finish   3s,    8.5% completed, time steps left  7909
  Time to finish   3s,    8.5% completed, time steps left  7908
  Time to finish   3s,    8.5% completed, time steps left  7907
  Time to finish   3s,    8.5% completed, time steps left  7906
  Time to finish   3s,    8.5% completed, time steps left  7905
  Time to finish   3s,    8.5% completed, time steps left  7904
  Time to finish   3s,    8.5% completed, time steps left  7903
  Time to finish   3s,    8.5% completed, time steps left  7902
  Time to finish   3s,    8.6% completed, time steps left  7901
  Time to finish   3s,    8.6% completed, time steps left  7900
  Time to finish   3s,    8.6% completed, time steps left  7899
  Time to finish   3s,    8.6% completed, time steps left  7898
  Time to finish   3s,    8.6% completed, time steps left  7897
  Time to finish   3s,    8.6% completed, time steps left  7896
  Time to finish   3s,    8.6% completed, time steps left  7895
  Time to finish   3s,    8.6% completed, time steps left  7894
  Time to finish   3s,    8.6% completed, time steps left  7893
  Time to finish   3s,    8.7% completed, time steps left  7892
  Time to finish   3s,    8.7% completed, time steps left  7891
  Time to finish   3s,    8.7% completed, time steps left  7890
  Time to finish   3s,    8.7% completed, time steps left  7889
  Time to finish   3s,    8.7% completed, time steps left  7888
  Time to finish   3s,    8.7% completed, time steps left  7887
  Time to finish   3s,    8.7% completed, time steps left  7886
  Time to finish   3s,    8.7% completed, time steps left  7885
  Time to finish   3s,    8.8% completed, time steps left  7884
  Time to finish   3s,    8.8% completed, time steps left  7883
  Time to finish   3s,    8.8% completed, time steps left  7882
  Time to finish   3s,    8.8% completed, time steps left  7881
  Time to finish   3s,    8.8% completed, time steps left  7880
  Time to finish   3s,    8.8% completed, time steps left  7879
  Time to finish   3s,    8.8% completed, time steps left  7878
  Time to finish   3s,    8.8% completed, time steps left  7877
  Time to finish   3s,    8.8% completed, time steps left  7876
  Time to finish   3s,    8.9% completed, time steps left  7875
  Time to finish   3s,    8.9% completed, time steps left  7874
  Time to finish   3s,    8.9% completed, time steps left  7873
  Time to finish   3s,    8.9% completed, time steps left  7872
  Time to finish   3s,    8.9% completed, time steps left  7871
  Time to finish   3s,    8.9% completed, time steps left  7870
  Time to finish   3s,    8.9% completed, time steps left  7869
  Time to finish   3s,    8.9% completed, time steps left  7868
  Time to finish   3s,    8.9% completed, time steps left  7867
  Time to finish   3s,    9.0% completed, time steps left  7866
  Time to finish   3s,    9.0% completed, time steps left  7865
  Time to finish   3s,    9.0% completed, time steps left  7864
  Time to finish   3s,    9.0% completed, time steps left  7863
  Time to finish   3s,    9.0% completed, time steps left  7862
  Time to finish   3s,    9.0% completed, time steps left  7861
  Time to finish   3s,    9.0% completed, time steps left  7860
  Time to finish   3s,    9.0% completed, time steps left  7859
  Time to finish   3s,    9.1% completed, time steps left  7858
  Time to finish   3s,    9.1% completed, time steps left  7857
  Time to finish   3s,    9.1% completed, time steps left  7856
  Time to finish   3s,    9.1% completed, time steps left  7855
  Time to finish   3s,    9.1% completed, time steps left  7854
  Time to finish   3s,    9.1% completed, time steps left  7853
  Time to finish   3s,    9.1% completed, time steps left  7852
  Time to finish   3s,    9.1% completed, time steps left  7851
  Time to finish   3s,    9.1% completed, time steps left  7850
  Time to finish   3s,    9.2% completed, time steps left  7849
  Time to finish   3s,    9.2% completed, time steps left  7848
  Time to finish   3s,    9.2% completed, time steps left  7847
  Time to finish   3s,    9.2% completed, time steps left  7846
  Time to finish   3s,    9.2% completed, time steps left  7845
  Time to finish   3s,    9.2% completed, time steps left  7844
  Time to finish   3s,    9.2% completed, time steps left  7843
  Time to finish   3s,    9.2% completed, time steps left  7842
  Time to finish   3s,    9.2% completed, time steps left  7841
  Time to finish   3s,    9.3% completed, time steps left  7840
  Time to finish   3s,    9.3% completed, time steps left  7839
  Time to finish   3s,    9.3% completed, time steps left  7838
  Time to finish   3s,    9.3% completed, time steps left  7837
  Time to finish   3s,    9.3% completed, time steps left  7836
  Time to finish   3s,    9.3% completed, time steps left  7835
  Time to finish   3s,    9.3% completed, time steps left  7834
  Time to finish   3s,    9.3% completed, time steps left  7833
  Time to finish   3s,    9.4% completed, time steps left  7832
  Time to finish   3s,    9.4% completed, time steps left  7831
  Time to finish   3s,    9.4% completed, time steps left  7830
  Time to finish   3s,    9.4% completed, time steps left  7829
  Time to finish   3s,    9.4% completed, time steps left  7828
  Time to finish   3s,    9.4% completed, time steps left  7827
  Time to finish   3s,    9.4% completed, time steps left  7826
  Time to finish   3s,    9.4% completed, time steps left  7825
  Time to finish   3s,    9.4% completed, time steps left  7824
  Time to finish   3s,    9.5% completed, time steps left  7823
  Time to finish   3s,    9.5% completed, time steps left  7822
  Time to finish   3s,    9.5% completed, time steps left  7821
  Time to finish   3s,    9.5% completed, time steps left  7820
  Time to finish   3s,    9.5% completed, time steps left  7819
  Time to finish   3s,    9.5% completed, time steps left  7818
  Time to finish   3s,    9.5% completed, time steps left  7817
  Time to finish   3s,    9.5% completed, time steps left  7816
  Time to finish   3s,    9.5% completed, time steps left  7815
  Time to finish   3s,    9.6% completed, time steps left  7814
  Time to finish   3s,    9.6% completed, time steps left  7813
  Time to finish   3s,    9.6% completed, time steps left  7812
  Time to finish   3s,    9.6% completed, time steps left  7811
  Time to finish   3s,    9.6% completed, time steps left  7810
  Time to finish   3s,    9.6% completed, time steps left  7809
  Time to finish   3s,    9.6% completed, time steps left  7808
  Time to finish   3s,    9.6% completed, time steps left  7807
  Time to finish   3s,    9.7% completed, time steps left  7806
  Time to finish   3s,    9.7% completed, time steps left  7805
  Time to finish   3s,    9.7% completed, time steps left  7804
  Time to finish   3s,    9.7% completed, time steps left  7803
  Time to finish   3s,    9.7% completed, time steps left  7802
  Time to finish   3s,    9.7% completed, time steps left  7801
  Time to finish   3s,    9.7% completed, time steps left  7800
  Time to finish   3s,    9.7% completed, time steps left  7799
  Time to finish   3s,    9.7% completed, time steps left  7798
  Time to finish   3s,    9.8% completed, time steps left  7797
  Time to finish   3s,    9.8% completed, time steps left  7796
  Time to finish   3s,    9.8% completed, time steps left  7795
  Time to finish   3s,    9.8% completed, time steps left  7794
  Time to finish   3s,    9.8% completed, time steps left  7793
  Time to finish   3s,    9.8% completed, time steps left  7792
  Time to finish   3s,    9.8% completed, time steps left  7791
  Time to finish   3s,    9.8% completed, time steps left  7790
  Time to finish   3s,    9.8% completed, time steps left  7789
  Time to finish   3s,    9.9% completed, time steps left  7788
  Time to finish   3s,    9.9% completed, time steps left  7787
  Time to finish   3s,    9.9% completed, time steps left  7786
  Time to finish   3s,    9.9% completed, time steps left  7785
  Time to finish   3s,    9.9% completed, time steps left  7784
  Time to finish   3s,    9.9% completed, time steps left  7783
  Time to finish   3s,    9.9% completed, time steps left  7782
  Time to finish   3s,    9.9% completed, time steps left  7781
  Time to finish   3s,   10.0% completed, time steps left  7780
  Time to finish   3s,   10.0% completed, time steps left  7779
  Time to finish   3s,   10.0% completed, time steps left  7778
  Time to finish   3s,   10.0% completed, time steps left  7777
  Time to finish   3s,   10.0% completed, time steps left  7776
  Time to finish   3s,   10.0% completed, time steps left  7775
  Time to finish   3s,   10.0% completed, time steps left  7774
  Time to finish   3s,   10.0% completed, time steps left  7773
  Time to finish   3s,   10.0% completed, time steps left  7772
  Time to finish   3s,   10.1% completed, time steps left  7771
  Time to finish   3s,   10.1% completed, time steps left  7770
  Time to finish   3s,   10.1% completed, time steps left  7769
  Time to finish   3s,   10.1% completed, time steps left  7768
  Time to finish   3s,   10.1% completed, time steps left  7767
  Time to finish   3s,   10.1% completed, time steps left  7766
  Time to finish   3s,   10.1% completed, time steps left  7765
  Time to finish   3s,   10.1% completed, time steps left  7764
  Time to finish   3s,   10.2% completed, time steps left  7763
  Time to finish   3s,   10.2% completed, time steps left  7762
  Time to finish   3s,   10.2% completed, time steps left  7761
  Time to finish   3s,   10.2% completed, time steps left  7760
  Time to finish   3s,   10.2% completed, time steps left  7759
  Time to finish   3s,   10.2% completed, time steps left  7758
  Time to finish   3s,   10.2% completed, time steps left  7757
  Time to finish   3s,   10.2% completed, time steps left  7756
  Time to finish   3s,   10.2% completed, time steps left  7755
  Time to finish   3s,   10.3% completed, time steps left  7754
  Time to finish   3s,   10.3% completed, time steps left  7753
  Time to finish   3s,   10.3% completed, time steps left  7752
  Time to finish   3s,   10.3% completed, time steps left  7751
  Time to finish   3s,   10.3% completed, time steps left  7750
  Time to finish   3s,   10.3% completed, time steps left  7749
  Time to finish   3s,   10.3% completed, time steps left  7748
  Time to finish   3s,   10.3% completed, time steps left  7747
  Time to finish   3s,   10.3% completed, time steps left  7746
  Time to finish   3s,   10.4% completed, time steps left  7745
  Time to finish   3s,   10.4% completed, time steps left  7744
  Time to finish   3s,   10.4% completed, time steps left  7743
  Time to finish   3s,   10.4% completed, time steps left  7742
  Time to finish   3s,   10.4% completed, time steps left  7741
  Time to finish   3s,   10.4% completed, time steps left  7740
  Time to finish   3s,   10.4% completed, time steps left  7739
  Time to finish   3s,   10.4% completed, time steps left  7738
  Time to finish   3s,   10.5% completed, time steps left  7737
  Time to finish   3s,   10.5% completed, time steps left  7736
  Time to finish   3s,   10.5% completed, time steps left  7735
  Time to finish   3s,   10.5% completed, time steps left  7734
  Time to finish   3s,   10.5% completed, time steps left  7733
  Time to finish   3s,   10.5% completed, time steps left  7732
  Time to finish   3s,   10.5% completed, time steps left  7731
  Time to finish   3s,   10.5% completed, time steps left  7730
  Time to finish   3s,   10.5% completed, time steps left  7729
  Time to finish   3s,   10.6% completed, time steps left  7728
  Time to finish   3s,   10.6% completed, time steps left  7727
  Time to finish   3s,   10.6% completed, time steps left  7726
  Time to finish   3s,   10.6% completed, time steps left  7725
  Time to finish   3s,   10.6% completed, time steps left  7724
  Time to finish   3s,   10.6% completed, time steps left  7723
  Time to finish   3s,   10.6% completed, time steps left  7722
  Time to finish   3s,   10.6% completed, time steps left  7721
  Time to finish   3s,   10.6% completed, time steps left  7720
  Time to finish   3s,   10.7% completed, time steps left  7719
  Time to finish   3s,   10.7% completed, time steps left  7718
  Time to finish   3s,   10.7% completed, time steps left  7717
  Time to finish   3s,   10.7% completed, time steps left  7716
  Time to finish   3s,   10.7% completed, time steps left  7715
  Time to finish   3s,   10.7% completed, time steps left  7714
  Time to finish   3s,   10.7% completed, time steps left  7713
  Time to finish   3s,   10.7% completed, time steps left  7712
  Time to finish   3s,   10.8% completed, time steps left  7711
  Time to finish   3s,   10.8% completed, time steps left  7710
  Time to finish   3s,   10.8% completed, time steps left  7709
  Time to finish   3s,   10.8% completed, time steps left  7708
  Time to finish   3s,   10.8% completed, time steps left  7707
  Time to finish   3s,   10.8% completed, time steps left  7706
  Time to finish   3s,   10.8% completed, time steps left  7705
  Time to finish   3s,   10.8% completed, time steps left  7704
  Time to finish   3s,   10.8% completed, time steps left  7703
  Time to finish   3s,   10.9% completed, time steps left  7702
  Time to finish   3s,   10.9% completed, time steps left  7701
  Time to finish   3s,   10.9% completed, time steps left  7700
  Time to finish   3s,   10.9% completed, time steps left  7699
  Time to finish   3s,   10.9% completed, time steps left  7698
  Time to finish   3s,   10.9% completed, time steps left  7697
  Time to finish   3s,   10.9% completed, time steps left  7696
  Time to finish   3s,   10.9% completed, time steps left  7695
  Time to finish   3s,   10.9% completed, time steps left  7694
  Time to finish   3s,   11.0% completed, time steps left  7693
  Time to finish   3s,   11.0% completed, time steps left  7692
  Time to finish   3s,   11.0% completed, time steps left  7691
  Time to finish   3s,   11.0% completed, time steps left  7690
  Time to finish   3s,   11.0% completed, time steps left  7689
  Time to finish   3s,   11.0% completed, time steps left  7688
  Time to finish   3s,   11.0% completed, time steps left  7687
  Time to finish   3s,   11.0% completed, time steps left  7686
  Time to finish   3s,   11.1% completed, time steps left  7685
  Time to finish   3s,   11.1% completed, time steps left  7684
  Time to finish   3s,   11.1% completed, time steps left  7683
  Time to finish   3s,   11.1% completed, time steps left  7682
  Time to finish   3s,   11.1% completed, time steps left  7681
  Time to finish   3s,   11.1% completed, time steps left  7680
  Time to finish   3s,   11.1% completed, time steps left  7679
  Time to finish   3s,   11.1% completed, time steps left  7678
  Time to finish   3s,   11.1% completed, time steps left  7677
  Time to finish   3s,   11.2% completed, time steps left  7676
  Time to finish   3s,   11.2% completed, time steps left  7675
  Time to finish   3s,   11.2% completed, time steps left  7674
  Time to finish   3s,   11.2% completed, time steps left  7673
  Time to finish   3s,   11.2% completed, time steps left  7672
  Time to finish   3s,   11.2% completed, time steps left  7671
  Time to finish   3s,   11.2% completed, time steps left  7670
  Time to finish   3s,   11.2% completed, time steps left  7669
  Time to finish   3s,   11.2% completed, time steps left  7668
  Time to finish   3s,   11.3% completed, time steps left  7667
  Time to finish   3s,   11.3% completed, time steps left  7666
  Time to finish   3s,   11.3% completed, time steps left  7665
  Time to finish   3s,   11.3% completed, time steps left  7664
  Time to finish   3s,   11.3% completed, time steps left  7663
  Time to finish   3s,   11.3% completed, time steps left  7662
  Time to finish   3s,   11.3% completed, time steps left  7661
  Time to finish   3s,   11.3% completed, time steps left  7660
  Time to finish   3s,   11.4% completed, time steps left  7659
  Time to finish   3s,   11.4% completed, time steps left  7658
  Time to finish   3s,   11.4% completed, time steps left  7657
  Time to finish   3s,   11.4% completed, time steps left  7656
  Time to finish   3s,   11.4% completed, time steps left  7655
  Time to finish   3s,   11.4% completed, time steps left  7654
  Time to finish   3s,   11.4% completed, time steps left  7653
  Time to finish   3s,   11.4% completed, time steps left  7652
  Time to finish   3s,   11.4% completed, time steps left  7651
  Time to finish   3s,   11.5% completed, time steps left  7650
  Time to finish   3s,   11.5% completed, time steps left  7649
  Time to finish   3s,   11.5% completed, time steps left  7648
  Time to finish   3s,   11.5% completed, time steps left  7647
  Time to finish   3s,   11.5% completed, time steps left  7646
  Time to finish   3s,   11.5% completed, time steps left  7645
  Time to finish   3s,   11.5% completed, time steps left  7644
  Time to finish   3s,   11.5% completed, time steps left  7643
  Time to finish   3s,   11.6% completed, time steps left  7642
  Time to finish   3s,   11.6% completed, time steps left  7641
  Time to finish   3s,   11.6% completed, time steps left  7640
  Time to finish   3s,   11.6% completed, time steps left  7639
  Time to finish   3s,   11.6% completed, time steps left  7638
  Time to finish   3s,   11.6% completed, time steps left  7637
  Time to finish   3s,   11.6% completed, time steps left  7636
  Time to finish   3s,   11.6% completed, time steps left  7635
  Time to finish   3s,   11.6% completed, time steps left  7634
  Time to finish   3s,   11.7% completed, time steps left  7633
  Time to finish   3s,   11.7% completed, time steps left  7632
  Time to finish   3s,   11.7% completed, time steps left  7631
  Time to finish   3s,   11.7% completed, time steps left  7630
  Time to finish   3s,   11.7% completed, time steps left  7629
  Time to finish   3s,   11.7% completed, time steps left  7628
  Time to finish   3s,   11.7% completed, time steps left  7627
  Time to finish   3s,   11.7% completed, time steps left  7626
  Time to finish   3s,   11.7% completed, time steps left  7625
  Time to finish   3s,   11.8% completed, time steps left  7624
  Time to finish   3s,   11.8% completed, time steps left  7623
  Time to finish   3s,   11.8% completed, time steps left  7622
  Time to finish   3s,   11.8% completed, time steps left  7621
  Time to finish   3s,   11.8% completed, time steps left  7620
  Time to finish   3s,   11.8% completed, time steps left  7619
  Time to finish   3s,   11.8% completed, time steps left  7618
  Time to finish   3s,   11.8% completed, time steps left  7617
  Time to finish   3s,   11.9% completed, time steps left  7616
  Time to finish   3s,   11.9% completed, time steps left  7615
  Time to finish   3s,   11.9% completed, time steps left  7614
  Time to finish   3s,   11.9% completed, time steps left  7613
  Time to finish   3s,   11.9% completed, time steps left  7612
  Time to finish   3s,   11.9% completed, time steps left  7611
  Time to finish   3s,   11.9% completed, time steps left  7610
  Time to finish   3s,   11.9% completed, time steps left  7609
  Time to finish   3s,   11.9% completed, time steps left  7608
  Time to finish   3s,   12.0% completed, time steps left  7607
  Time to finish   3s,   12.0% completed, time steps left  7606
  Time to finish   3s,   12.0% completed, time steps left  7605
  Time to finish   3s,   12.0% completed, time steps left  7604
  Time to finish   3s,   12.0% completed, time steps left  7603
  Time to finish   3s,   12.0% completed, time steps left  7602
  Time to finish   3s,   12.0% completed, time steps left  7601
  Time to finish   3s,   12.0% completed, time steps left  7600
  Time to finish   3s,   12.0% completed, time steps left  7599
  Time to finish   3s,   12.1% completed, time steps left  7598
  Time to finish   3s,   12.1% completed, time steps left  7597
  Time to finish   3s,   12.1% completed, time steps left  7596
  Time to finish   3s,   12.1% completed, time steps left  7595
  Time to finish   3s,   12.1% completed, time steps left  7594
  Time to finish   3s,   12.1% completed, time steps left  7593
  Time to finish   3s,   12.1% completed, time steps left  7592
  Time to finish   3s,   12.1% completed, time steps left  7591
  Time to finish   3s,   12.2% completed, time steps left  7590
  Time to finish   3s,   12.2% completed, time steps left  7589
  Time to finish   3s,   12.2% completed, time steps left  7588
  Time to finish   3s,   12.2% completed, time steps left  7587
  Time to finish   3s,   12.2% completed, time steps left  7586
  Time to finish   3s,   12.2% completed, time steps left  7585
  Time to finish   3s,   12.2% completed, time steps left  7584
  Time to finish   3s,   12.2% completed, time steps left  7583
  Time to finish   3s,   12.2% completed, time steps left  7582
  Time to finish   3s,   12.3% completed, time steps left  7581
  Time to finish   3s,   12.3% completed, time steps left  7580
  Time to finish   3s,   12.3% completed, time steps left  7579
  Time to finish   3s,   12.3% completed, time steps left  7578
  Time to finish   3s,   12.3% completed, time steps left  7577
  Time to finish   3s,   12.3% completed, time steps left  7576
  Time to finish   3s,   12.3% completed, time steps left  7575
  Time to finish   3s,   12.3% completed, time steps left  7574
  Time to finish   3s,   12.3% completed, time steps left  7573
  Time to finish   3s,   12.4% completed, time steps left  7572
  Time to finish   3s,   12.4% completed, time steps left  7571
  Time to finish   3s,   12.4% completed, time steps left  7570
  Time to finish   3s,   12.4% completed, time steps left  7569
  Time to finish   3s,   12.4% completed, time steps left  7568
  Time to finish   3s,   12.4% completed, time steps left  7567
  Time to finish   3s,   12.4% completed, time steps left  7566
  Time to finish   3s,   12.4% completed, time steps left  7565
  Time to finish   3s,   12.5% completed, time steps left  7564
  Time to finish   3s,   12.5% completed, time steps left  7563
  Time to finish   3s,   12.5% completed, time steps left  7562
  Time to finish   3s,   12.5% completed, time steps left  7561
  Time to finish   3s,   12.5% completed, time steps left  7560
  Time to finish   3s,   12.5% completed, time steps left  7559
  Time to finish   3s,   12.5% completed, time steps left  7558
  Time to finish   3s,   12.5% completed, time steps left  7557
  Time to finish   3s,   12.5% completed, time steps left  7556
  Time to finish   3s,   12.6% completed, time steps left  7555
  Time to finish   3s,   12.6% completed, time steps left  7554
  Time to finish   3s,   12.6% completed, time steps left  7553
  Time to finish   3s,   12.6% completed, time steps left  7552
  Time to finish   3s,   12.6% completed, time steps left  7551
  Time to finish   3s,   12.6% completed, time steps left  7550
  Time to finish   3s,   12.6% completed, time steps left  7549
  Time to finish   3s,   12.6% completed, time steps left  7548
  Time to finish   3s,   12.7% completed, time steps left  7547
  Time to finish   3s,   12.7% completed, time steps left  7546
  Time to finish   3s,   12.7% completed, time steps left  7545
  Time to finish   3s,   12.7% completed, time steps left  7544
  Time to finish   3s,   12.7% completed, time steps left  7543
  Time to finish   3s,   12.7% completed, time steps left  7542
  Time to finish   3s,   12.7% completed, time steps left  7541
  Time to finish   3s,   12.7% completed, time steps left  7540
  Time to finish   3s,   12.7% completed, time steps left  7539
  Time to finish   3s,   12.8% completed, time steps left  7538
  Time to finish   3s,   12.8% completed, time steps left  7537
  Time to finish   3s,   12.8% completed, time steps left  7536
  Time to finish   3s,   12.8% completed, time steps left  7535
  Time to finish   3s,   12.8% completed, time steps left  7534
  Time to finish   3s,   12.8% completed, time steps left  7533
  Time to finish   3s,   12.8% completed, time steps left  7532
  Time to finish   3s,   12.8% completed, time steps left  7531
  Time to finish   3s,   12.8% completed, time steps left  7530
  Time to finish   3s,   12.9% completed, time steps left  7529
  Time to finish   3s,   12.9% completed, time steps left  7528
  Time to finish   3s,   12.9% completed, time steps left  7527
  Time to finish   3s,   12.9% completed, time steps left  7526
  Time to finish   3s,   12.9% completed, time steps left  7525
  Time to finish   3s,   12.9% completed, time steps left  7524
  Time to finish   3s,   12.9% completed, time steps left  7523
  Time to finish   3s,   12.9% completed, time steps left  7522
  Time to finish   3s,   13.0% completed, time steps left  7521
  Time to finish   3s,   13.0% completed, time steps left  7520
  Time to finish   3s,   13.0% completed, time steps left  7519
  Time to finish   3s,   13.0% completed, time steps left  7518
  Time to finish   3s,   13.0% completed, time steps left  7517
  Time to finish   3s,   13.0% completed, time steps left  7516
  Time to finish   3s,   13.0% completed, time steps left  7515
  Time to finish   3s,   13.0% completed, time steps left  7514
  Time to finish   3s,   13.0% completed, time steps left  7513
  Time to finish   3s,   13.1% completed, time steps left  7512
  Time to finish   3s,   13.1% completed, time steps left  7511
  Time to finish   3s,   13.1% completed, time steps left  7510
  Time to finish   3s,   13.1% completed, time steps left  7509
  Time to finish   3s,   13.1% completed, time steps left  7508
  Time to finish   3s,   13.1% completed, time steps left  7507
  Time to finish   3s,   13.1% completed, time steps left  7506
  Time to finish   3s,   13.1% completed, time steps left  7505
  Time to finish   3s,   13.1% completed, time steps left  7504
  Time to finish   3s,   13.2% completed, time steps left  7503
  Time to finish   3s,   13.2% completed, time steps left  7502
  Time to finish   3s,   13.2% completed, time steps left  7501
  Time to finish   3s,   13.2% completed, time steps left  7500
  Time to finish   3s,   13.2% completed, time steps left  7499
  Time to finish   3s,   13.2% completed, time steps left  7498
  Time to finish   3s,   13.2% completed, time steps left  7497
  Time to finish   3s,   13.2% completed, time steps left  7496
  Time to finish   3s,   13.3% completed, time steps left  7495
  Time to finish   3s,   13.3% completed, time steps left  7494
  Time to finish   3s,   13.3% completed, time steps left  7493
  Time to finish   3s,   13.3% completed, time steps left  7492
  Time to finish   3s,   13.3% completed, time steps left  7491
  Time to finish   3s,   13.3% completed, time steps left  7490
  Time to finish   3s,   13.3% completed, time steps left  7489
  Time to finish   3s,   13.3% completed, time steps left  7488
  Time to finish   3s,   13.3% completed, time steps left  7487
  Time to finish   3s,   13.4% completed, time steps left  7486
  Time to finish   3s,   13.4% completed, time steps left  7485
  Time to finish   3s,   13.4% completed, time steps left  7484
  Time to finish   3s,   13.4% completed, time steps left  7483
  Time to finish   3s,   13.4% completed, time steps left  7482
  Time to finish   3s,   13.4% completed, time steps left  7481
  Time to finish   3s,   13.4% completed, time steps left  7480
  Time to finish   3s,   13.4% completed, time steps left  7479
  Time to finish   3s,   13.4% completed, time steps left  7478
  Time to finish   3s,   13.5% completed, time steps left  7477
  Time to finish   3s,   13.5% completed, time steps left  7476
  Time to finish   3s,   13.5% completed, time steps left  7475
  Time to finish   3s,   13.5% completed, time steps left  7474
  Time to finish   3s,   13.5% completed, time steps left  7473
  Time to finish   3s,   13.5% completed, time steps left  7472
  Time to finish   3s,   13.5% completed, time steps left  7471
  Time to finish   3s,   13.5% completed, time steps left  7470
  Time to finish   3s,   13.6% completed, time steps left  7469
  Time to finish   3s,   13.6% completed, time steps left  7468
  Time to finish   3s,   13.6% completed, time steps left  7467
  Time to finish   3s,   13.6% completed, time steps left  7466
  Time to finish   3s,   13.6% completed, time steps left  7465
  Time to finish   3s,   13.6% completed, time steps left  7464
  Time to finish   3s,   13.6% completed, time steps left  7463
  Time to finish   3s,   13.6% completed, time steps left  7462
  Time to finish   3s,   13.6% completed, time steps left  7461
  Time to finish   3s,   13.7% completed, time steps left  7460
  Time to finish   3s,   13.7% completed, time steps left  7459
  Time to finish   3s,   13.7% completed, time steps left  7458
  Time to finish   3s,   13.7% completed, time steps left  7457
  Time to finish   3s,   13.7% completed, time steps left  7456
  Time to finish   3s,   13.7% completed, time steps left  7455
  Time to finish   3s,   13.7% completed, time steps left  7454
  Time to finish   3s,   13.7% completed, time steps left  7453
  Time to finish   3s,   13.8% completed, time steps left  7452
  Time to finish   3s,   13.8% completed, time steps left  7451
  Time to finish   3s,   13.8% completed, time steps left  7450
  Time to finish   3s,   13.8% completed, time steps left  7449
  Time to finish   3s,   13.8% completed, time steps left  7448
  Time to finish   3s,   13.8% completed, time steps left  7447
  Time to finish   3s,   13.8% completed, time steps left  7446
  Time to finish   3s,   13.8% completed, time steps left  7445
  Time to finish   3s,   13.8% completed, time steps left  7444
  Time to finish   3s,   13.9% completed, time steps left  7443
  Time to finish   3s,   13.9% completed, time steps left  7442
  Time to finish   3s,   13.9% completed, time steps left  7441
  Time to finish   3s,   13.9% completed, time steps left  7440
  Time to finish   3s,   13.9% completed, time steps left  7439
  Time to finish   3s,   13.9% completed, time steps left  7438
  Time to finish   3s,   13.9% completed, time steps left  7437
  Time to finish   3s,   13.9% completed, time steps left  7436
  Time to finish   3s,   13.9% completed, time steps left  7435
  Time to finish   3s,   14.0% completed, time steps left  7434
  Time to finish   3s,   14.0% completed, time steps left  7433
  Time to finish   3s,   14.0% completed, time steps left  7432
  Time to finish   3s,   14.0% completed, time steps left  7431
  Time to finish   3s,   14.0% completed, time steps left  7430
  Time to finish   3s,   14.0% completed, time steps left  7429
  Time to finish   3s,   14.0% completed, time steps left  7428
  Time to finish   3s,   14.0% completed, time steps left  7427
  Time to finish   3s,   14.1% completed, time steps left  7426
  Time to finish   3s,   14.1% completed, time steps left  7425
  Time to finish   3s,   14.1% completed, time steps left  7424
  Time to finish   3s,   14.1% completed, time steps left  7423
  Time to finish   3s,   14.1% completed, time steps left  7422
  Time to finish   3s,   14.1% completed, time steps left  7421
  Time to finish   3s,   14.1% completed, time steps left  7420
  Time to finish   3s,   14.1% completed, time steps left  7419
  Time to finish   3s,   14.1% completed, time steps left  7418
  Time to finish   3s,   14.2% completed, time steps left  7417
  Time to finish   3s,   14.2% completed, time steps left  7416
  Time to finish   3s,   14.2% completed, time steps left  7415
  Time to finish   3s,   14.2% completed, time steps left  7414
  Time to finish   3s,   14.2% completed, time steps left  7413
  Time to finish   3s,   14.2% completed, time steps left  7412
  Time to finish   3s,   14.2% completed, time steps left  7411
  Time to finish   3s,   14.2% completed, time steps left  7410
  Time to finish   3s,   14.2% completed, time steps left  7409
  Time to finish   3s,   14.3% completed, time steps left  7408
  Time to finish   3s,   14.3% completed, time steps left  7407
  Time to finish   3s,   14.3% completed, time steps left  7406
[...]
  Time to finish   0s,   96.4% completed, time steps left  311
  Time to finish   0s,   96.4% completed, time steps left  310
  Time to finish   0s,   96.4% completed, time steps left  309
  Time to finish   0s,   96.4% completed, time steps left  308
  Time to finish   0s,   96.4% completed, time steps left  307
  Time to finish   0s,   96.5% completed, time steps left  306
  Time to finish   0s,   96.5% completed, time steps left  305
  Time to finish   0s,   96.5% completed, time steps left  304
  Time to finish   0s,   96.5% completed, time steps left  303
  Time to finish   0s,   96.5% completed, time steps left  302
  Time to finish   0s,   96.5% completed, time steps left  301
  Time to finish   0s,   96.5% completed, time steps left  300
  Time to finish   0s,   96.5% completed, time steps left  299
  Time to finish   0s,   96.6% completed, time steps left  298
  Time to finish   0s,   96.6% completed, time steps left  297
  Time to finish   0s,   96.6% completed, time steps left  296
  Time to finish   0s,   96.6% completed, time steps left  295
  Time to finish   0s,   96.6% completed, time steps left  294
  Time to finish   0s,   96.6% completed, time steps left  293
  Time to finish   0s,   96.6% completed, time steps left  292
  Time to finish   0s,   96.6% completed, time steps left  291
  Time to finish   0s,   96.6% completed, time steps left  290
  Time to finish   0s,   96.7% completed, time steps left  289
  Time to finish   0s,   96.7% completed, time steps left  288
  Time to finish   0s,   96.7% completed, time steps left  287
  Time to finish   0s,   96.7% completed, time steps left  286
  Time to finish   0s,   96.7% completed, time steps left  285
  Time to finish   0s,   96.7% completed, time steps left  284
  Time to finish   0s,   96.7% completed, time steps left  283
  Time to finish   0s,   96.7% completed, time steps left  282
  Time to finish   0s,   96.7% completed, time steps left  281
  Time to finish   0s,   96.8% completed, time steps left  280
  Time to finish   0s,   96.8% completed, time steps left  279
  Time to finish   0s,   96.8% completed, time steps left  278
  Time to finish   0s,   96.8% completed, time steps left  277
  Time to finish   0s,   96.8% completed, time steps left  276
  Time to finish   0s,   96.8% completed, time steps left  275
  Time to finish   0s,   96.8% completed, time steps left  274
  Time to finish   0s,   96.8% completed, time steps left  273
  Time to finish   0s,   96.9% completed, time steps left  272
  Time to finish   0s,   96.9% completed, time steps left  271
  Time to finish   0s,   96.9% completed, time steps left  270
  Time to finish   0s,   96.9% completed, time steps left  269
  Time to finish   0s,   96.9% completed, time steps left  268
  Time to finish   0s,   96.9% completed, time steps left  267
  Time to finish   0s,   96.9% completed, time steps left  266
  Time to finish   0s,   96.9% completed, time steps left  265
  Time to finish   0s,   96.9% completed, time steps left  264
  Time to finish   0s,   97.0% completed, time steps left  263
  Time to finish   0s,   97.0% completed, time steps left  262
  Time to finish   0s,   97.0% completed, time steps left  261
  Time to finish   0s,   97.0% completed, time steps left  260
  Time to finish   0s,   97.0% completed, time steps left  259
  Time to finish   0s,   97.0% completed, time steps left  258
  Time to finish   0s,   97.0% completed, time steps left  257
  Time to finish   0s,   97.0% completed, time steps left  256
  Time to finish   0s,   97.0% completed, time steps left  255
  Time to finish   0s,   97.1% completed, time steps left  254
  Time to finish   0s,   97.1% completed, time steps left  253
  Time to finish   0s,   97.1% completed, time steps left  252
  Time to finish   0s,   97.1% completed, time steps left  251
  Time to finish   0s,   97.1% completed, time steps left  250
  Time to finish   0s,   97.1% completed, time steps left  249
  Time to finish   0s,   97.1% completed, time steps left  248
  Time to finish   0s,   97.1% completed, time steps left  247
  Time to finish   0s,   97.2% completed, time steps left  246
  Time to finish   0s,   97.2% completed, time steps left  245
  Time to finish   0s,   97.2% completed, time steps left  244
  Time to finish   0s,   97.2% completed, time steps left  243
  Time to finish   0s,   97.2% completed, time steps left  242
  Time to finish   0s,   97.2% completed, time steps left  241
  Time to finish   0s,   97.2% completed, time steps left  240
  Time to finish   0s,   97.2% completed, time steps left  239
  Time to finish   0s,   97.2% completed, time steps left  238
  Time to finish   0s,   97.3% completed, time steps left  237
  Time to finish   0s,   97.3% completed, time steps left  236
  Time to finish   0s,   97.3% completed, time steps left  235
  Time to finish   0s,   97.3% completed, time steps left  234
  Time to finish   0s,   97.3% completed, time steps left  233
  Time to finish   0s,   97.3% completed, time steps left  232
  Time to finish   0s,   97.3% completed, time steps left  231
  Time to finish   0s,   97.3% completed, time steps left  230
  Time to finish   0s,   97.3% completed, time steps left  229
  Time to finish   0s,   97.4% completed, time steps left  228
  Time to finish   0s,   97.4% completed, time steps left  227
  Time to finish   0s,   97.4% completed, time steps left  226
  Time to finish   0s,   97.4% completed, time steps left  225
  Time to finish   0s,   97.4% completed, time steps left  224
  Time to finish   0s,   97.4% completed, time steps left  223
  Time to finish   0s,   97.4% completed, time steps left  222
  Time to finish   0s,   97.4% completed, time steps left  221
  Time to finish   0s,   97.5% completed, time steps left  220
  Time to finish   0s,   97.5% completed, time steps left  219
  Time to finish   0s,   97.5% completed, time steps left  218
  Time to finish   0s,   97.5% completed, time steps left  217
  Time to finish   0s,   97.5% completed, time steps left  216
  Time to finish   0s,   97.5% completed, time steps left  215
  Time to finish   0s,   97.5% completed, time steps left  214
  Time to finish   0s,   97.5% completed, time steps left  213
  Time to finish   0s,   97.5% completed, time steps left  212
  Time to finish   0s,   97.6% completed, time steps left  211
  Time to finish   0s,   97.6% completed, time steps left  210
  Time to finish   0s,   97.6% completed, time steps left  209
  Time to finish   0s,   97.6% completed, time steps left  208
  Time to finish   0s,   97.6% completed, time steps left  207
  Time to finish   0s,   97.6% completed, time steps left  206
  Time to finish   0s,   97.6% completed, time steps left  205
  Time to finish   0s,   97.6% completed, time steps left  204
  Time to finish   0s,   97.7% completed, time steps left  203
  Time to finish   0s,   97.7% completed, time steps left  202
  Time to finish   0s,   97.7% completed, time steps left  201
  Time to finish   0s,   97.7% completed, time steps left  200
  Time to finish   0s,   97.7% completed, time steps left  199
  Time to finish   0s,   97.7% completed, time steps left  198
  Time to finish   0s,   97.7% completed, time steps left  197
  Time to finish   0s,   97.7% completed, time steps left  196
  Time to finish   0s,   97.7% completed, time steps left  195
  Time to finish   0s,   97.8% completed, time steps left  194
  Time to finish   0s,   97.8% completed, time steps left  193
  Time to finish   0s,   97.8% completed, time steps left  192
  Time to finish   0s,   97.8% completed, time steps left  191
  Time to finish   0s,   97.8% completed, time steps left  190
  Time to finish   0s,   97.8% completed, time steps left  189
  Time to finish   0s,   97.8% completed, time steps left  188
  Time to finish   0s,   97.8% completed, time steps left  187
  Time to finish   0s,   97.8% completed, time steps left  186
  Time to finish   0s,   97.9% completed, time steps left  185
  Time to finish   0s,   97.9% completed, time steps left  184
  Time to finish   0s,   97.9% completed, time steps left  183
  Time to finish   0s,   97.9% completed, time steps left  182
  Time to finish   0s,   97.9% completed, time steps left  181
  Time to finish   0s,   97.9% completed, time steps left  180
  Time to finish   0s,   97.9% completed, time steps left  179
  Time to finish   0s,   97.9% completed, time steps left  178
  Time to finish   0s,   98.0% completed, time steps left  177
  Time to finish   0s,   98.0% completed, time steps left  176
  Time to finish   0s,   98.0% completed, time steps left  175
  Time to finish   0s,   98.0% completed, time steps left  174
  Time to finish   0s,   98.0% completed, time steps left  173
  Time to finish   0s,   98.0% completed, time steps left  172
  Time to finish   0s,   98.0% completed, time steps left  171
  Time to finish   0s,   98.0% completed, time steps left  170
  Time to finish   0s,   98.0% completed, time steps left  169
  Time to finish   0s,   98.1% completed, time steps left  168
  Time to finish   0s,   98.1% completed, time steps left  167
  Time to finish   0s,   98.1% completed, time steps left  166
  Time to finish   0s,   98.1% completed, time steps left  165
  Time to finish   0s,   98.1% completed, time steps left  164
  Time to finish   0s,   98.1% completed, time steps left  163
  Time to finish   0s,   98.1% completed, time steps left  162
  Time to finish   0s,   98.1% completed, time steps left  161
  Time to finish   0s,   98.1% completed, time steps left  160
  Time to finish   0s,   98.2% completed, time steps left  159
  Time to finish   0s,   98.2% completed, time steps left  158
  Time to finish   0s,   98.2% completed, time steps left  157
  Time to finish   0s,   98.2% completed, time steps left  156
  Time to finish   0s,   98.2% completed, time steps left  155
  Time to finish   0s,   98.2% completed, time steps left  154
  Time to finish   0s,   98.2% completed, time steps left  153
  Time to finish   0s,   98.2% completed, time steps left  152
  Time to finish   0s,   98.3% completed, time steps left  151
  Time to finish   0s,   98.3% completed, time steps left  150
  Time to finish   0s,   98.3% completed, time steps left  149
  Time to finish   0s,   98.3% completed, time steps left  148
  Time to finish   0s,   98.3% completed, time steps left  147
  Time to finish   0s,   98.3% completed, time steps left  146
  Time to finish   0s,   98.3% completed, time steps left  145
  Time to finish   0s,   98.3% completed, time steps left  144
  Time to finish   0s,   98.3% completed, time steps left  143
  Time to finish   0s,   98.4% completed, time steps left  142
  Time to finish   0s,   98.4% completed, time steps left  141
  Time to finish   0s,   98.4% completed, time steps left  140
  Time to finish   0s,   98.4% completed, time steps left  139
  Time to finish   0s,   98.4% completed, time steps left  138
  Time to finish   0s,   98.4% completed, time steps left  137
  Time to finish   0s,   98.4% completed, time steps left  136
  Time to finish   0s,   98.4% completed, time steps left  135
  Time to finish   0s,   98.4% completed, time steps left  134
  Time to finish   0s,   98.5% completed, time steps left  133
  Time to finish   0s,   98.5% completed, time steps left  132
  Time to finish   0s,   98.5% completed, time steps left  131
  Time to finish   0s,   98.5% completed, time steps left  130
  Time to finish   0s,   98.5% completed, time steps left  129
  Time to finish   0s,   98.5% completed, time steps left  128
  Time to finish   0s,   98.5% completed, time steps left  127
  Time to finish   0s,   98.5% completed, time steps left  126
  Time to finish   0s,   98.6% completed, time steps left  125
  Time to finish   0s,   98.6% completed, time steps left  124
  Time to finish   0s,   98.6% completed, time steps left  123
  Time to finish   0s,   98.6% completed, time steps left  122
  Time to finish   0s,   98.6% completed, time steps left  121
  Time to finish   0s,   98.6% completed, time steps left  120
  Time to finish   0s,   98.6% completed, time steps left  119
  Time to finish   0s,   98.6% completed, time steps left  118
  Time to finish   0s,   98.6% completed, time steps left  117
  Time to finish   0s,   98.7% completed, time steps left  116
  Time to finish   0s,   98.7% completed, time steps left  115
  Time to finish   0s,   98.7% completed, time steps left  114
  Time to finish   0s,   98.7% completed, time steps left  113
  Time to finish   0s,   98.7% completed, time steps left  112
  Time to finish   0s,   98.7% completed, time steps left  111
  Time to finish   0s,   98.7% completed, time steps left  110
  Time to finish   0s,   98.7% completed, time steps left  109
  Time to finish   0s,   98.8% completed, time steps left  108
  Time to finish   0s,   98.8% completed, time steps left  107
  Time to finish   0s,   98.8% completed, time steps left  106
  Time to finish   0s,   98.8% completed, time steps left  105
  Time to finish   0s,   98.8% completed, time steps left  104
  Time to finish   0s,   98.8% completed, time steps left  103
  Time to finish   0s,   98.8% completed, time steps left  102
  Time to finish   0s,   98.8% completed, time steps left  101
  Time to finish   0s,   98.8% completed, time steps left  100
  Time to finish   0s,   98.9% completed, time steps left  99
  Time to finish   0s,   98.9% completed, time steps left  98
  Time to finish   0s,   98.9% completed, time steps left  97
  Time to finish   0s,   98.9% completed, time steps left  96
  Time to finish   0s,   98.9% completed, time steps left  95
  Time to finish   0s,   98.9% completed, time steps left  94
  Time to finish   0s,   98.9% completed, time steps left  93
  Time to finish   0s,   98.9% completed, time steps left  92
  Time to finish   0s,   98.9% completed, time steps left  91
  Time to finish   0s,   99.0% completed, time steps left  90
  Time to finish   0s,   99.0% completed, time steps left  89
  Time to finish   0s,   99.0% completed, time steps left  88
  Time to finish   0s,   99.0% completed, time steps left  87
  Time to finish   0s,   99.0% completed, time steps left  86
  Time to finish   0s,   99.0% completed, time steps left  85
  Time to finish   0s,   99.0% completed, time steps left  84
  Time to finish   0s,   99.0% completed, time steps left  83
  Time to finish   0s,   99.1% completed, time steps left  82
  Time to finish   0s,   99.1% completed, time steps left  81
  Time to finish   0s,   99.1% completed, time steps left  80
  Time to finish   0s,   99.1% completed, time steps left  79
  Time to finish   0s,   99.1% completed, time steps left  78
  Time to finish   0s,   99.1% completed, time steps left  77
  Time to finish   0s,   99.1% completed, time steps left  76
  Time to finish   0s,   99.1% completed, time steps left  75
  Time to finish   0s,   99.1% completed, time steps left  74
  Time to finish   0s,   99.2% completed, time steps left  73
  Time to finish   0s,   99.2% completed, time steps left  72
  Time to finish   0s,   99.2% completed, time steps left  71
  Time to finish   0s,   99.2% completed, time steps left  70
  Time to finish   0s,   99.2% completed, time steps left  69
  Time to finish   0s,   99.2% completed, time steps left  68
  Time to finish   0s,   99.2% completed, time steps left  67
  Time to finish   0s,   99.2% completed, time steps left  66
  Time to finish   0s,   99.2% completed, time steps left  65
  Time to finish   0s,   99.3% completed, time steps left  64
  Time to finish   0s,   99.3% completed, time steps left  63
  Time to finish   0s,   99.3% completed, time steps left  62
  Time to finish   0s,   99.3% completed, time steps left  61
  Time to finish   0s,   99.3% completed, time steps left  60
  Time to finish   0s,   99.3% completed, time steps left  59
  Time to finish   0s,   99.3% completed, time steps left  58
  Time to finish   0s,   99.3% completed, time steps left  57
  Time to finish   0s,   99.4% completed, time steps left  56
  Time to finish   0s,   99.4% completed, time steps left  55
  Time to finish   0s,   99.4% completed, time steps left  54
  Time to finish   0s,   99.4% completed, time steps left  53
  Time to finish   0s,   99.4% completed, time steps left  52
  Time to finish   0s,   99.4% completed, time steps left  51
  Time to finish   0s,   99.4% completed, time steps left  50
  Time to finish   0s,   99.4% completed, time steps left  49
  Time to finish   0s,   99.4% completed, time steps left  48
  Time to finish   0s,   99.5% completed, time steps left  47
  Time to finish   0s,   99.5% completed, time steps left  46
  Time to finish   0s,   99.5% completed, time steps left  45
  Time to finish   0s,   99.5% completed, time steps left  44
  Time to finish   0s,   99.5% completed, time steps left  43
  Time to finish   0s,   99.5% completed, time steps left  42
  Time to finish   0s,   99.5% completed, time steps left  41
  Time to finish   0s,   99.5% completed, time steps left  40
  Time to finish   0s,   99.5% completed, time steps left  39
  Time to finish   0s,   99.6% completed, time steps left  38
  Time to finish   0s,   99.6% completed, time steps left  37
  Time to finish   0s,   99.6% completed, time steps left  36
  Time to finish   0s,   99.6% completed, time steps left  35
  Time to finish   0s,   99.6% completed, time steps left  34
  Time to finish   0s,   99.6% completed, time steps left  33
  Time to finish   0s,   99.6% completed, time steps left  32
  Time to finish   0s,   99.6% completed, time steps left  31
  Time to finish   0s,   99.7% completed, time steps left  30
  Time to finish   0s,   99.7% completed, time steps left  29
  Time to finish   0s,   99.7% completed, time steps left  28
  Time to finish   0s,   99.7% completed, time steps left  27
  Time to finish   0s,   99.7% completed, time steps left  26
  Time to finish   0s,   99.7% completed, time steps left  25
  Time to finish   0s,   99.7% completed, time steps left  24
  Time to finish   0s,   99.7% completed, time steps left  23
  Time to finish   0s,   99.7% completed, time steps left  22
  Time to finish   0s,   99.8% completed, time steps left  21
  Time to finish   0s,   99.8% completed, time steps left  20
  Time to finish   0s,   99.8% completed, time steps left  19
  Time to finish   0s,   99.8% completed, time steps left  18
  Time to finish   0s,   99.8% completed, time steps left  17
  Time to finish   0s,   99.8% completed, time steps left  16
  Time to finish   0s,   99.8% completed, time steps left  15
  Time to finish   0s,   99.8% completed, time steps left  14
  Time to finish   0s,   99.8% completed, time steps left  13
  Time to finish   0s,   99.9% completed, time steps left  12
  Time to finish   0s,   99.9% completed, time steps left  11
  Time to finish   0s,   99.9% completed, time steps left  10
  Time to finish   0s,   99.9% completed, time steps left  9
  Time to finish   0s,   99.9% completed, time steps left  8
  Time to finish   0s,   99.9% completed, time steps left  7
  Time to finish   0s,   99.9% completed, time steps left  6
  Time to finish   0s,   99.9% completed, time steps left  5
  Time to finish   0s,  100.0% completed, time steps left  4
  Time to finish   0s,  100.0% completed, time steps left  3
  Time to finish   0s,  100.0% completed, time steps left  2
  Time to finish   0s,  100.0% completed, time steps left  1
 
------------------------------------------------------------------------------
  FINISHED    Delft3D-FLOW
              runid      : col-hyd
              date, time : 2019-02-22, 13:53:06
*** WARNING no stations and cross-sections defined; HIS-file not created !!
    0 errors and     1 warnings
returning to main program from domain col-hyd
------------------------------------------------------------------------------
D_Hydro [6.000482] <anonymous> >> d_hydro shutting down normally
