

--------------------------------------------------------------------------------

Command: run Delft3D-FLOW
   Starting Delft3D-FLOW computation ...
--------------------------------------------------------------------------------
       Deltares, FLOW2D3D Version 6.02.13.7545M, Sep 13 2017, 21:16:30
       flow2d3d.dll entry Flow2D3D::Run
--------------------------------------------------------------------------------

Part I    - Initialisation Time Dep. Data module...    
            runid : col-hyd
Part II   - Creating intermediate files...             
Part III  - Initialisation of the Execution module...  
Part IV   - Reading complete MD-file...                     
Part V    - Initialisation & checking input...              
Part VI   - Initialisation & checking second part...        
Part VII  - Initialisation output...                        
Part VIII - Start Simulation...                             
 
  Time to finish   0s,    0.0% completed, time steps left  52560
  Time to finish   1h 35m,    0.0% completed, time steps left  52559
  Time to finish  49m,    0.0% completed, time steps left  52558
  Time to finish  33m,    0.0% completed, time steps left  52557
  Time to finish  25m,    0.0% completed, time steps left  52556
  Time to finish  20m,    0.0% completed, time steps left  52555
  Time to finish  17m,    0.0% completed, time steps left  52554
  Time to finish  15m,    0.0% completed, time steps left  52553
  Time to finish  13m,    0.0% completed, time steps left  52552
  Time to finish  11m,    0.0% completed, time steps left  52551
  Time to finish  10m,    0.0% completed, time steps left  52550
  Time to finish   9m 24s,    0.0% completed, time steps left  52549
  Time to finish   8m 37s,    0.0% completed, time steps left  52548
  Time to finish   8m  9s,    0.0% completed, time steps left  52547
  Time to finish   7m 38s,    0.0% completed, time steps left  52546
  Time to finish   7m  7s,    0.0% completed, time steps left  52545
  Time to finish   6m 44s,    0.0% completed, time steps left  52544
  Time to finish   6m 20s,    0.0% completed, time steps left  52543
  Time to finish   5m 59s,    0.0% completed, time steps left  52542
  Time to finish   5m 43s,    0.0% completed, time steps left  52541
  Time to finish   5m 26s,    0.0% completed, time steps left  52540
  Time to finish   5m 13s,    0.0% completed, time steps left  52539
  Time to finish   4m 59s,    0.0% completed, time steps left  52538
  Time to finish   4m 48s,    0.0% completed, time steps left  52537
  Time to finish   4m 36s,    0.0% completed, time steps left  52536
  Time to finish   5m  0s,    0.0% completed, time steps left  52535
  Time to finish   4m 49s,    0.0% completed, time steps left  52534
  Time to finish   4m 38s,    0.1% completed, time steps left  52533
  Time to finish   4m 30s,    0.1% completed, time steps left  52532
  Time to finish   4m 21s,    0.1% completed, time steps left  52531
  Time to finish   4m 12s,    0.1% completed, time steps left  52530
  Time to finish   4m  6s,    0.1% completed, time steps left  52529
  Time to finish   4m  0s,    0.1% completed, time steps left  52528
  Time to finish   3m 52s,    0.1% completed, time steps left  52527
  Time to finish   3m 47s,    0.1% completed, time steps left  52526
  Time to finish   3m 41s,    0.1% completed, time steps left  52525
  Time to finish   3m 34s,    0.1% completed, time steps left  52524
  Time to finish   3m 34s,    0.1% completed, time steps left  52523
  Time to finish   3m 29s,    0.1% completed, time steps left  52522
  Time to finish   3m 25s,    0.1% completed, time steps left  52521
  Time to finish   3m 20s,    0.1% completed, time steps left  52520
  Time to finish   3m 16s,    0.1% completed, time steps left  52519
  Time to finish   3m 11s,    0.1% completed, time steps left  52518
  Time to finish   3m  8s,    0.1% completed, time steps left  52517
  Time to finish   3m  4s,    0.1% completed, time steps left  52516
  Time to finish   3m  0s,    0.1% completed, time steps left  52515
  Time to finish   2m 57s,    0.1% completed, time steps left  52514
  Time to finish   2m 53s,    0.1% completed, time steps left  52513
  Time to finish   2m 50s,    0.1% completed, time steps left  52512
  Time to finish   2m 51s,    0.1% completed, time steps left  52511
  Time to finish   2m 48s,    0.1% completed, time steps left  52510
  Time to finish   2m 46s,    0.1% completed, time steps left  52509
  Time to finish   2m 44s,    0.1% completed, time steps left  52508
  Time to finish   2m 40s,    0.1% completed, time steps left  52507
  Time to finish   2m 38s,    0.1% completed, time steps left  52506
  Time to finish   2m 37s,    0.1% completed, time steps left  52505
  Time to finish   2m 34s,    0.1% completed, time steps left  52504
  Time to finish   2m 32s,    0.1% completed, time steps left  52503
  Time to finish   2m 29s,    0.1% completed, time steps left  52502
  Time to finish   2m 28s,    0.1% completed, time steps left  52501
  Time to finish   2m 26s,    0.1% completed, time steps left  52500
  Time to finish   2m 26s,    0.1% completed, time steps left  52499
  Time to finish   2m 25s,    0.1% completed, time steps left  52498
  Time to finish   2m 22s,    0.1% completed, time steps left  52497
  Time to finish   2m 21s,    0.1% completed, time steps left  52496
  Time to finish   2m 20s,    0.1% completed, time steps left  52495
  Time to finish   2m 18s,    0.1% completed, time steps left  52494
  Time to finish   2m 16s,    0.1% completed, time steps left  52493
  Time to finish   2m 15s,    0.1% completed, time steps left  52492
  Time to finish   2m 14s,    0.1% completed, time steps left  52491
  Time to finish   2m 12s,    0.1% completed, time steps left  52490
  Time to finish   2m 11s,    0.1% completed, time steps left  52489
  Time to finish   2m 10s,    0.1% completed, time steps left  52488
  Time to finish   2m 10s,    0.1% completed, time steps left  52487
  Time to finish   2m  8s,    0.1% completed, time steps left  52486
  Time to finish   2m  7s,    0.1% completed, time steps left  52485
  Time to finish   2m  6s,    0.1% completed, time steps left  52484
  Time to finish   2m  5s,    0.1% completed, time steps left  52483
  Time to finish   2m  3s,    0.1% completed, time steps left  52482
  Time to finish   2m  2s,    0.2% completed, time steps left  52481
  Time to finish   2m  1s,    0.2% completed, time steps left  52480
  Time to finish   2m  0s,    0.2% completed, time steps left  52479
  Time to finish   1m 58s,    0.2% completed, time steps left  52478
  Time to finish   1m 58s,    0.2% completed, time steps left  52477
  Time to finish   1m 57s,    0.2% completed, time steps left  52476
  Time to finish   1m 57s,    0.2% completed, time steps left  52475
  Time to finish   1m 56s,    0.2% completed, time steps left  52474
  Time to finish   1m 55s,    0.2% completed, time steps left  52473
  Time to finish   1m 54s,    0.2% completed, time steps left  52472
  Time to finish   1m 53s,    0.2% completed, time steps left  52471
  Time to finish   1m 52s,    0.2% completed, time steps left  52470
  Time to finish   1m 51s,    0.2% completed, time steps left  52469
  Time to finish   1m 51s,    0.2% completed, time steps left  52468
  Time to finish   1m 50s,    0.2% completed, time steps left  52467
  Time to finish   1m 49s,    0.2% completed, time steps left  52466
  Time to finish   1m 48s,    0.2% completed, time steps left  52465
  Time to finish   1m 47s,    0.2% completed, time steps left  52464
  Time to finish   1m 48s,    0.2% completed, time steps left  52463
  Time to finish   1m 47s,    0.2% completed, time steps left  52462
  Time to finish   1m 47s,    0.2% completed, time steps left  52461
  Time to finish   1m 46s,    0.2% completed, time steps left  52460
  Time to finish   1m 45s,    0.2% completed, time steps left  52459
  Time to finish   1m 44s,    0.2% completed, time steps left  52458
  Time to finish   1m 44s,    0.2% completed, time steps left  52457
  Time to finish   1m 43s,    0.2% completed, time steps left  52456
  Time to finish   1m 43s,    0.2% completed, time steps left  52455
  Time to finish   1m 42s,    0.2% completed, time steps left  52454
  Time to finish   1m 41s,    0.2% completed, time steps left  52453
  Time to finish   1m 41s,    0.2% completed, time steps left  52452
  Time to finish   1m 41s,    0.2% completed, time steps left  52451
  Time to finish   1m 41s,    0.2% completed, time steps left  52450
  Time to finish   1m 40s,    0.2% completed, time steps left  52449
  Time to finish   1m 39s,    0.2% completed, time steps left  52448
  Time to finish   1m 38s,    0.2% completed, time steps left  52447
  Time to finish   1m 38s,    0.2% completed, time steps left  52446
  Time to finish   1m 37s,    0.2% completed, time steps left  52445
  Time to finish   1m 36s,    0.2% completed, time steps left  52444
  Time to finish   1m 35s,    0.2% completed, time steps left  52443
  Time to finish   1m 35s,    0.2% completed, time steps left  52442
  Time to finish   1m 34s,    0.2% completed, time steps left  52441
  Time to finish   1m 34s,    0.2% completed, time steps left  52440
  Time to finish   1m 34s,    0.2% completed, time steps left  52439
  Time to finish   1m 34s,    0.2% completed, time steps left  52438
  Time to finish   1m 33s,    0.2% completed, time steps left  52437
  Time to finish   1m 33s,    0.2% completed, time steps left  52436
  Time to finish   1m 32s,    0.2% completed, time steps left  52435
  Time to finish   1m 31s,    0.2% completed, time steps left  52434
  Time to finish   1m 31s,    0.2% completed, time steps left  52433
  Time to finish   1m 31s,    0.2% completed, time steps left  52432
  Time to finish   1m 30s,    0.2% completed, time steps left  52431
  Time to finish   1m 30s,    0.2% completed, time steps left  52430
  Time to finish   1m 29s,    0.2% completed, time steps left  52429
  Time to finish   1m 29s,    0.3% completed, time steps left  52428
  Time to finish   1m 29s,    0.3% completed, time steps left  52427
  Time to finish   1m 28s,    0.3% completed, time steps left  52426
  Time to finish   1m 28s,    0.3% completed, time steps left  52425
  Time to finish   1m 28s,    0.3% completed, time steps left  52424
  Time to finish   1m 27s,    0.3% completed, time steps left  52423
  Time to finish   1m 27s,    0.3% completed, time steps left  52422
  Time to finish   1m 26s,    0.3% completed, time steps left  52421
  Time to finish   1m 26s,    0.3% completed, time steps left  52420
  Time to finish   1m 25s,    0.3% completed, time steps left  52419
  Time to finish   1m 25s,    0.3% completed, time steps left  52418
  Time to finish   1m 24s,    0.3% completed, time steps left  52417
  Time to finish   1m 24s,    0.3% completed, time steps left  52416
  Time to finish   1m 25s,    0.3% completed, time steps left  52415
  Time to finish   1m 25s,    0.3% completed, time steps left  52414
  Time to finish   1m 25s,    0.3% completed, time steps left  52413
  Time to finish   1m 24s,    0.3% completed, time steps left  52412
  Time to finish   1m 24s,    0.3% completed, time steps left  52411
  Time to finish   1m 24s,    0.3% completed, time steps left  52410
  Time to finish   1m 23s,    0.3% completed, time steps left  52409
  Time to finish   1m 23s,    0.3% completed, time steps left  52408
  Time to finish   1m 23s,    0.3% completed, time steps left  52407
  Time to finish   1m 22s,    0.3% completed, time steps left  52406
  Time to finish   1m 21s,    0.3% completed, time steps left  52405
  Time to finish   1m 21s,    0.3% completed, time steps left  52404
  Time to finish   1m 21s,    0.3% completed, time steps left  52403
  Time to finish   1m 21s,    0.3% completed, time steps left  52402
  Time to finish   1m 21s,    0.3% completed, time steps left  52401
  Time to finish   1m 21s,    0.3% completed, time steps left  52400
  Time to finish   1m 20s,    0.3% completed, time steps left  52399
  Time to finish   1m 20s,    0.3% completed, time steps left  52398
  Time to finish   1m 20s,    0.3% completed, time steps left  52397
  Time to finish   1m 20s,    0.3% completed, time steps left  52396
  Time to finish   1m 19s,    0.3% completed, time steps left  52395
  Time to finish   1m 19s,    0.3% completed, time steps left  52394
  Time to finish   1m 18s,    0.3% completed, time steps left  52393
  Time to finish   1m 18s,    0.3% completed, time steps left  52392
  Time to finish   1m 18s,    0.3% completed, time steps left  52391
  Time to finish   1m 18s,    0.3% completed, time steps left  52390
  Time to finish   1m 18s,    0.3% completed, time steps left  52389
  Time to finish   1m 18s,    0.3% completed, time steps left  52388
  Time to finish   1m 18s,    0.3% completed, time steps left  52387
  Time to finish   1m 17s,    0.3% completed, time steps left  52386
  Time to finish   1m 17s,    0.3% completed, time steps left  52385
  Time to finish   1m 17s,    0.3% completed, time steps left  52384
  Time to finish   1m 17s,    0.3% completed, time steps left  52383
  Time to finish   1m 17s,    0.3% completed, time steps left  52382
  Time to finish   1m 16s,    0.3% completed, time steps left  52381
  Time to finish   1m 16s,    0.3% completed, time steps left  52380
  Time to finish   1m 16s,    0.3% completed, time steps left  52379
  Time to finish   1m 16s,    0.3% completed, time steps left  52378
  Time to finish   1m 16s,    0.3% completed, time steps left  52377
  Time to finish   1m 15s,    0.4% completed, time steps left  52376
  Time to finish   1m 15s,    0.4% completed, time steps left  52375
  Time to finish   1m 15s,    0.4% completed, time steps left  52374
  Time to finish   1m 15s,    0.4% completed, time steps left  52373
  Time to finish   1m 14s,    0.4% completed, time steps left  52372
  Time to finish   1m 14s,    0.4% completed, time steps left  52371
  Time to finish   1m 14s,    0.4% completed, time steps left  52370
  Time to finish   1m 14s,    0.4% completed, time steps left  52369
  Time to finish   1m 13s,    0.4% completed, time steps left  52368
  Time to finish   1m 14s,    0.4% completed, time steps left  52367
  Time to finish   1m 14s,    0.4% completed, time steps left  52366
  Time to finish   1m 14s,    0.4% completed, time steps left  52365
  Time to finish   1m 13s,    0.4% completed, time steps left  52364
  Time to finish   1m 13s,    0.4% completed, time steps left  52363
  Time to finish   1m 13s,    0.4% completed, time steps left  52362
  Time to finish   1m 13s,    0.4% completed, time steps left  52361
  Time to finish   1m 13s,    0.4% completed, time steps left  52360
  Time to finish   1m 12s,    0.4% completed, time steps left  52359
  Time to finish   1m 12s,    0.4% completed, time steps left  52358
  Time to finish   1m 12s,    0.4% completed, time steps left  52357
  Time to finish   1m 12s,    0.4% completed, time steps left  52356
  Time to finish   1m 12s,    0.4% completed, time steps left  52355
  Time to finish   1m 12s,    0.4% completed, time steps left  52354
  Time to finish   1m 11s,    0.4% completed, time steps left  52353
  Time to finish   1m 11s,    0.4% completed, time steps left  52352
  Time to finish   1m 11s,    0.4% completed, time steps left  52351
  Time to finish   1m 11s,    0.4% completed, time steps left  52350
  Time to finish   1m 10s,    0.4% completed, time steps left  52349
  Time to finish   1m 10s,    0.4% completed, time steps left  52348
  Time to finish   1m 10s,    0.4% completed, time steps left  52347
  Time to finish   1m 10s,    0.4% completed, time steps left  52346
  Time to finish   1m 10s,    0.4% completed, time steps left  52345
  Time to finish   1m  9s,    0.4% completed, time steps left  52344
  Time to finish   1m 10s,    0.4% completed, time steps left  52343
  Time to finish   1m  9s,    0.4% completed, time steps left  52342
  Time to finish   1m  9s,    0.4% completed, time steps left  52341
  Time to finish   1m  9s,    0.4% completed, time steps left  52340
  Time to finish   1m  9s,    0.4% completed, time steps left  52339
  Time to finish   1m  9s,    0.4% completed, time steps left  52338
  Time to finish   1m  8s,    0.4% completed, time steps left  52337
  Time to finish   1m  8s,    0.4% completed, time steps left  52336
  Time to finish   1m  8s,    0.4% completed, time steps left  52335
  Time to finish   1m  8s,    0.4% completed, time steps left  52334
  Time to finish   1m  8s,    0.4% completed, time steps left  52333
  Time to finish   1m  7s,    0.4% completed, time steps left  52332
  Time to finish   1m  7s,    0.4% completed, time steps left  52331
  Time to finish   1m  7s,    0.4% completed, time steps left  52330
  Time to finish   1m  7s,    0.4% completed, time steps left  52329
  Time to finish   1m  7s,    0.4% completed, time steps left  52328
  Time to finish   1m  7s,    0.4% completed, time steps left  52327
  Time to finish   1m  6s,    0.4% completed, time steps left  52326
  Time to finish   1m  6s,    0.4% completed, time steps left  52325
  Time to finish   1m  6s,    0.4% completed, time steps left  52324
  Time to finish   1m  6s,    0.5% completed, time steps left  52323
  Time to finish   1m  6s,    0.5% completed, time steps left  52322
  Time to finish   1m  5s,    0.5% completed, time steps left  52321
  Time to finish   1m  5s,    0.5% completed, time steps left  52320
  Time to finish   1m  6s,    0.5% completed, time steps left  52319
  Time to finish   1m  6s,    0.5% completed, time steps left  52318
  Time to finish   1m  6s,    0.5% completed, time steps left  52317
  Time to finish   1m  5s,    0.5% completed, time steps left  52316
  Time to finish   1m  5s,    0.5% completed, time steps left  52315
  Time to finish   1m  5s,    0.5% completed, time steps left  52314
  Time to finish   1m  5s,    0.5% completed, time steps left  52313
  Time to finish   1m  5s,    0.5% completed, time steps left  52312
  Time to finish   1m  5s,    0.5% completed, time steps left  52311
  Time to finish   1m  5s,    0.5% completed, time steps left  52310
  Time to finish   1m  5s,    0.5% completed, time steps left  52309
  Time to finish   1m  4s,    0.5% completed, time steps left  52308
  Time to finish   1m  5s,    0.5% completed, time steps left  52307
  Time to finish   1m  5s,    0.5% completed, time steps left  52306
  Time to finish   1m  5s,    0.5% completed, time steps left  52305
  Time to finish   1m  4s,    0.5% completed, time steps left  52304
  Time to finish   1m  4s,    0.5% completed, time steps left  52303
  Time to finish   1m  4s,    0.5% completed, time steps left  52302
  Time to finish   1m  4s,    0.5% completed, time steps left  52301
  Time to finish   1m  4s,    0.5% completed, time steps left  52300
  Time to finish   1m  4s,    0.5% completed, time steps left  52299
  Time to finish   1m  4s,    0.5% completed, time steps left  52298
  Time to finish   1m  4s,    0.5% completed, time steps left  52297
  Time to finish   1m  4s,    0.5% completed, time steps left  52296
  Time to finish   1m  4s,    0.5% completed, time steps left  52295
  Time to finish   1m  4s,    0.5% completed, time steps left  52294
  Time to finish   1m  4s,    0.5% completed, time steps left  52293
  Time to finish   1m  4s,    0.5% completed, time steps left  52292
  Time to finish   1m  4s,    0.5% completed, time steps left  52291
  Time to finish   1m  4s,    0.5% completed, time steps left  52290
  Time to finish   1m  3s,    0.5% completed, time steps left  52289
  Time to finish   1m  3s,    0.5% completed, time steps left  52288
  Time to finish   1m  3s,    0.5% completed, time steps left  52287
  Time to finish   1m  3s,    0.5% completed, time steps left  52286
  Time to finish   1m  3s,    0.5% completed, time steps left  52285
  Time to finish   1m  3s,    0.5% completed, time steps left  52284
  Time to finish   1m  3s,    0.5% completed, time steps left  52283
  Time to finish   1m  3s,    0.5% completed, time steps left  52282
  Time to finish   1m  3s,    0.5% completed, time steps left  52281
  Time to finish   1m  3s,    0.5% completed, time steps left  52280
  Time to finish   1m  3s,    0.5% completed, time steps left  52279
  Time to finish   1m  2s,    0.5% completed, time steps left  52278
  Time to finish   1m  2s,    0.5% completed, time steps left  52277
  Time to finish   1m  2s,    0.5% completed, time steps left  52276
  Time to finish   1m  2s,    0.5% completed, time steps left  52275
  Time to finish   1m  2s,    0.5% completed, time steps left  52274
  Time to finish   1m  2s,    0.5% completed, time steps left  52273
  Time to finish   1m  2s,    0.5% completed, time steps left  52272
  Time to finish   1m  2s,    0.5% completed, time steps left  52271
  Time to finish   1m  2s,    0.6% completed, time steps left  52270
  Time to finish   1m  2s,    0.6% completed, time steps left  52269
  Time to finish   1m  2s,    0.6% completed, time steps left  52268
  Time to finish   1m  2s,    0.6% completed, time steps left  52267
  Time to finish   1m  2s,    0.6% completed, time steps left  52266
  Time to finish   1m  1s,    0.6% completed, time steps left  52265
  Time to finish   1m  1s,    0.6% completed, time steps left  52264
  Time to finish   1m  1s,    0.6% completed, time steps left  52263
  Time to finish   1m  1s,    0.6% completed, time steps left  52262
  Time to finish   1m  1s,    0.6% completed, time steps left  52261
  Time to finish   1m  1s,    0.6% completed, time steps left  52260
  Time to finish   1m  1s,    0.6% completed, time steps left  52259
  Time to finish   1m  1s,    0.6% completed, time steps left  52258
  Time to finish   1m  1s,    0.6% completed, time steps left  52257
  Time to finish   1m  1s,    0.6% completed, time steps left  52256
  Time to finish   1m  1s,    0.6% completed, time steps left  52255
  Time to finish   1m  1s,    0.6% completed, time steps left  52254
  Time to finish  60s,    0.6% completed, time steps left  52253
  Time to finish  60s,    0.6% completed, time steps left  52252
  Time to finish  60s,    0.6% completed, time steps left  52251
  Time to finish  60s,    0.6% completed, time steps left  52250
  Time to finish  60s,    0.6% completed, time steps left  52249
  Time to finish  60s,    0.6% completed, time steps left  52248
  Time to finish  60s,    0.6% completed, time steps left  52247
  Time to finish  60s,    0.6% completed, time steps left  52246
  Time to finish  60s,    0.6% completed, time steps left  52245
  Time to finish  60s,    0.6% completed, time steps left  52244
  Time to finish  59s,    0.6% completed, time steps left  52243
  Time to finish  59s,    0.6% completed, time steps left  52242
  Time to finish  59s,    0.6% completed, time steps left  52241
  Time to finish  59s,    0.6% completed, time steps left  52240
  Time to finish  59s,    0.6% completed, time steps left  52239
  Time to finish  59s,    0.6% completed, time steps left  52238
  Time to finish  59s,    0.6% completed, time steps left  52237
  Time to finish  59s,    0.6% completed, time steps left  52236
  Time to finish  59s,    0.6% completed, time steps left  52235
  Time to finish  59s,    0.6% completed, time steps left  52234
  Time to finish  59s,    0.6% completed, time steps left  52233
  Time to finish  59s,    0.6% completed, time steps left  52232
  Time to finish  59s,    0.6% completed, time steps left  52231
  Time to finish  59s,    0.6% completed, time steps left  52230
  Time to finish  59s,    0.6% completed, time steps left  52229
  Time to finish  59s,    0.6% completed, time steps left  52228
  Time to finish  59s,    0.6% completed, time steps left  52227
  Time to finish  58s,    0.6% completed, time steps left  52226
  Time to finish  58s,    0.6% completed, time steps left  52225
  Time to finish  58s,    0.6% completed, time steps left  52224
  Time to finish  58s,    0.6% completed, time steps left  52223
  Time to finish  58s,    0.6% completed, time steps left  52222
  Time to finish  58s,    0.6% completed, time steps left  52221
  Time to finish  58s,    0.6% completed, time steps left  52220
  Time to finish  58s,    0.6% completed, time steps left  52219
  Time to finish  58s,    0.7% completed, time steps left  52218
  Time to finish  58s,    0.7% completed, time steps left  52217
  Time to finish  58s,    0.7% completed, time steps left  52216
  Time to finish  58s,    0.7% completed, time steps left  52215
  Time to finish  57s,    0.7% completed, time steps left  52214
  Time to finish  57s,    0.7% completed, time steps left  52213
  Time to finish  57s,    0.7% completed, time steps left  52212
  Time to finish  58s,    0.7% completed, time steps left  52211
  Time to finish  58s,    0.7% completed, time steps left  52210
  Time to finish  58s,    0.7% completed, time steps left  52209
  Time to finish  58s,    0.7% completed, time steps left  52208
  Time to finish  58s,    0.7% completed, time steps left  52207
  Time to finish  57s,    0.7% completed, time steps left  52206
  Time to finish  57s,    0.7% completed, time steps left  52205
  Time to finish  57s,    0.7% completed, time steps left  52204
  Time to finish  57s,    0.7% completed, time steps left  52203
  Time to finish  57s,    0.7% completed, time steps left  52202
  Time to finish  57s,    0.7% completed, time steps left  52201
  Time to finish  57s,    0.7% completed, time steps left  52200
  Time to finish  57s,    0.7% completed, time steps left  52199
  Time to finish  57s,    0.7% completed, time steps left  52198
  Time to finish  57s,    0.7% completed, time steps left  52197
  Time to finish  57s,    0.7% completed, time steps left  52196
  Time to finish  57s,    0.7% completed, time steps left  52195
  Time to finish  57s,    0.7% completed, time steps left  52194
  Time to finish  57s,    0.7% completed, time steps left  52193
  Time to finish  57s,    0.7% completed, time steps left  52192
  Time to finish  57s,    0.7% completed, time steps left  52191
  Time to finish  57s,    0.7% completed, time steps left  52190
  Time to finish  57s,    0.7% completed, time steps left  52189
  Time to finish  57s,    0.7% completed, time steps left  52188
  Time to finish  57s,    0.7% completed, time steps left  52187
  Time to finish  57s,    0.7% completed, time steps left  52186
  Time to finish  57s,    0.7% completed, time steps left  52185
  Time to finish  57s,    0.7% completed, time steps left  52184
  Time to finish  56s,    0.7% completed, time steps left  52183
  Time to finish  56s,    0.7% completed, time steps left  52182
  Time to finish  56s,    0.7% completed, time steps left  52181
  Time to finish  56s,    0.7% completed, time steps left  52180
  Time to finish  56s,    0.7% completed, time steps left  52179
  Time to finish  56s,    0.7% completed, time steps left  52178
  Time to finish  56s,    0.7% completed, time steps left  52177
  Time to finish  56s,    0.7% completed, time steps left  52176
  Time to finish  56s,    0.7% completed, time steps left  52175
  Time to finish  56s,    0.7% completed, time steps left  52174
  Time to finish  56s,    0.7% completed, time steps left  52173
  Time to finish  56s,    0.7% completed, time steps left  52172
  Time to finish  56s,    0.7% completed, time steps left  52171
  Time to finish  56s,    0.7% completed, time steps left  52170
  Time to finish  56s,    0.7% completed, time steps left  52169
  Time to finish  56s,    0.7% completed, time steps left  52168
  Time to finish  56s,    0.7% completed, time steps left  52167
  Time to finish  55s,    0.7% completed, time steps left  52166
  Time to finish  55s,    0.8% completed, time steps left  52165
  Time to finish  55s,    0.8% completed, time steps left  52164
  Time to finish  55s,    0.8% completed, time steps left  52163
  Time to finish  55s,    0.8% completed, time steps left  52162
  Time to finish  55s,    0.8% completed, time steps left  52161
  Time to finish  55s,    0.8% completed, time steps left  52160
  Time to finish  55s,    0.8% completed, time steps left  52159
  Time to finish  55s,    0.8% completed, time steps left  52158
  Time to finish  55s,    0.8% completed, time steps left  52157
  Time to finish  55s,    0.8% completed, time steps left  52156
  Time to finish  55s,    0.8% completed, time steps left  52155
  Time to finish  55s,    0.8% completed, time steps left  52154
  Time to finish  55s,    0.8% completed, time steps left  52153
  Time to finish  55s,    0.8% completed, time steps left  52152
  Time to finish  55s,    0.8% completed, time steps left  52151
  Time to finish  55s,    0.8% completed, time steps left  52150
  Time to finish  55s,    0.8% completed, time steps left  52149
  Time to finish  55s,    0.8% completed, time steps left  52148
  Time to finish  55s,    0.8% completed, time steps left  52147
  Time to finish  55s,    0.8% completed, time steps left  52146
  Time to finish  55s,    0.8% completed, time steps left  52145
  Time to finish  55s,    0.8% completed, time steps left  52144
  Time to finish  55s,    0.8% completed, time steps left  52143
  Time to finish  55s,    0.8% completed, time steps left  52142
  Time to finish  54s,    0.8% completed, time steps left  52141
  Time to finish  54s,    0.8% completed, time steps left  52140
  Time to finish  54s,    0.8% completed, time steps left  52139
  Time to finish  54s,    0.8% completed, time steps left  52138
  Time to finish  54s,    0.8% completed, time steps left  52137
  Time to finish  54s,    0.8% completed, time steps left  52136
  Time to finish  54s,    0.8% completed, time steps left  52135
  Time to finish  54s,    0.8% completed, time steps left  52134
  Time to finish  54s,    0.8% completed, time steps left  52133
  Time to finish  54s,    0.8% completed, time steps left  52132
  Time to finish  54s,    0.8% completed, time steps left  52131
  Time to finish  54s,    0.8% completed, time steps left  52130
  Time to finish  54s,    0.8% completed, time steps left  52129
  Time to finish  54s,    0.8% completed, time steps left  52128
  Time to finish  54s,    0.8% completed, time steps left  52127
  Time to finish  54s,    0.8% completed, time steps left  52126
  Time to finish  54s,    0.8% completed, time steps left  52125
  Time to finish  54s,    0.8% completed, time steps left  52124
  Time to finish  54s,    0.8% completed, time steps left  52123
  Time to finish  53s,    0.8% completed, time steps left  52122
  Time to finish  53s,    0.8% completed, time steps left  52121
  Time to finish  53s,    0.8% completed, time steps left  52120
  Time to finish  53s,    0.8% completed, time steps left  52119
  Time to finish  53s,    0.8% completed, time steps left  52118
  Time to finish  53s,    0.8% completed, time steps left  52117
  Time to finish  53s,    0.8% completed, time steps left  52116
  Time to finish  53s,    0.8% completed, time steps left  52115
  Time to finish  53s,    0.8% completed, time steps left  52114
  Time to finish  53s,    0.9% completed, time steps left  52113
  Time to finish  53s,    0.9% completed, time steps left  52112
  Time to finish  53s,    0.9% completed, time steps left  52111
  Time to finish  53s,    0.9% completed, time steps left  52110
  Time to finish  53s,    0.9% completed, time steps left  52109
  Time to finish  53s,    0.9% completed, time steps left  52108
  Time to finish  53s,    0.9% completed, time steps left  52107
  Time to finish  53s,    0.9% completed, time steps left  52106
  Time to finish  53s,    0.9% completed, time steps left  52105
  Time to finish  53s,    0.9% completed, time steps left  52104
  Time to finish  53s,    0.9% completed, time steps left  52103
  Time to finish  53s,    0.9% completed, time steps left  52102
  Time to finish  53s,    0.9% completed, time steps left  52101
  Time to finish  53s,    0.9% completed, time steps left  52100
  Time to finish  53s,    0.9% completed, time steps left  52099
  Time to finish  53s,    0.9% completed, time steps left  52098
  Time to finish  53s,    0.9% completed, time steps left  52097
  Time to finish  53s,    0.9% completed, time steps left  52096
  Time to finish  53s,    0.9% completed, time steps left  52095
  Time to finish  53s,    0.9% completed, time steps left  52094
  Time to finish  53s,    0.9% completed, time steps left  52093
  Time to finish  52s,    0.9% completed, time steps left  52092
  Time to finish  53s,    0.9% completed, time steps left  52091
  Time to finish  53s,    0.9% completed, time steps left  52090
  Time to finish  53s,    0.9% completed, time steps left  52089
  Time to finish  52s,    0.9% completed, time steps left  52088
  Time to finish  52s,    0.9% completed, time steps left  52087
  Time to finish  52s,    0.9% completed, time steps left  52086
  Time to finish  52s,    0.9% completed, time steps left  52085
  Time to finish  52s,    0.9% completed, time steps left  52084
  Time to finish  52s,    0.9% completed, time steps left  52083
  Time to finish  52s,    0.9% completed, time steps left  52082
  Time to finish  52s,    0.9% completed, time steps left  52081
  Time to finish  52s,    0.9% completed, time steps left  52080
  Time to finish  52s,    0.9% completed, time steps left  52079
  Time to finish  52s,    0.9% completed, time steps left  52078
  Time to finish  52s,    0.9% completed, time steps left  52077
  Time to finish  52s,    0.9% completed, time steps left  52076
  Time to finish  52s,    0.9% completed, time steps left  52075
  Time to finish  52s,    0.9% completed, time steps left  52074
  Time to finish  52s,    0.9% completed, time steps left  52073
  Time to finish  52s,    0.9% completed, time steps left  52072
  Time to finish  52s,    0.9% completed, time steps left  52071
  Time to finish  52s,    0.9% completed, time steps left  52070
  Time to finish  52s,    0.9% completed, time steps left  52069
  Time to finish  52s,    0.9% completed, time steps left  52068
  Time to finish  52s,    0.9% completed, time steps left  52067
  Time to finish  52s,    0.9% completed, time steps left  52066
  Time to finish  52s,    0.9% completed, time steps left  52065
  Time to finish  52s,    0.9% completed, time steps left  52064
  Time to finish  51s,    0.9% completed, time steps left  52063
  Time to finish  51s,    0.9% completed, time steps left  52062
  Time to finish  51s,    0.9% completed, time steps left  52061
  Time to finish  51s,    1.0% completed, time steps left  52060
  Time to finish  51s,    1.0% completed, time steps left  52059
  Time to finish  51s,    1.0% completed, time steps left  52058
  Time to finish  51s,    1.0% completed, time steps left  52057
  Time to finish  51s,    1.0% completed, time steps left  52056
  Time to finish  51s,    1.0% completed, time steps left  52055
  Time to finish  51s,    1.0% completed, time steps left  52054
  Time to finish  51s,    1.0% completed, time steps left  52053
  Time to finish  51s,    1.0% completed, time steps left  52052
  Time to finish  51s,    1.0% completed, time steps left  52051
  Time to finish  51s,    1.0% completed, time steps left  52050
  Time to finish  51s,    1.0% completed, time steps left  52049
  Time to finish  51s,    1.0% completed, time steps left  52048
  Time to finish  51s,    1.0% completed, time steps left  52047
  Time to finish  51s,    1.0% completed, time steps left  52046
  Time to finish  51s,    1.0% completed, time steps left  52045
  Time to finish  51s,    1.0% completed, time steps left  52044
  Time to finish  51s,    1.0% completed, time steps left  52043
  Time to finish  51s,    1.0% completed, time steps left  52042
  Time to finish  51s,    1.0% completed, time steps left  52041
  Time to finish  51s,    1.0% completed, time steps left  52040
  Time to finish  51s,    1.0% completed, time steps left  52039
  Time to finish  51s,    1.0% completed, time steps left  52038
  Time to finish  51s,    1.0% completed, time steps left  52037
  Time to finish  50s,    1.0% completed, time steps left  52036
  Time to finish  50s,    1.0% completed, time steps left  52035
  Time to finish  50s,    1.0% completed, time steps left  52034
  Time to finish  50s,    1.0% completed, time steps left  52033
  Time to finish  50s,    1.0% completed, time steps left  52032
  Time to finish  50s,    1.0% completed, time steps left  52031
  Time to finish  50s,    1.0% completed, time steps left  52030
  Time to finish  50s,    1.0% completed, time steps left  52029
  Time to finish  50s,    1.0% completed, time steps left  52028
  Time to finish  50s,    1.0% completed, time steps left  52027
  Time to finish  50s,    1.0% completed, time steps left  52026
  Time to finish  50s,    1.0% completed, time steps left  52025
  Time to finish  50s,    1.0% completed, time steps left  52024
  Time to finish  50s,    1.0% completed, time steps left  52023
  Time to finish  50s,    1.0% completed, time steps left  52022
  Time to finish  50s,    1.0% completed, time steps left  52021
  Time to finish  50s,    1.0% completed, time steps left  52020
  Time to finish  50s,    1.0% completed, time steps left  52019
  Time to finish  50s,    1.0% completed, time steps left  52018
  Time to finish  50s,    1.0% completed, time steps left  52017
  Time to finish  50s,    1.0% completed, time steps left  52016
  Time to finish  50s,    1.0% completed, time steps left  52015
  Time to finish  50s,    1.0% completed, time steps left  52014
  Time to finish  50s,    1.0% completed, time steps left  52013
  Time to finish  50s,    1.0% completed, time steps left  52012
  Time to finish  50s,    1.0% completed, time steps left  52011
  Time to finish  50s,    1.0% completed, time steps left  52010
  Time to finish  50s,    1.0% completed, time steps left  52009
  Time to finish  50s,    1.1% completed, time steps left  52008
  Time to finish  50s,    1.1% completed, time steps left  52007
  Time to finish  50s,    1.1% completed, time steps left  52006
  Time to finish  50s,    1.1% completed, time steps left  52005
  Time to finish  50s,    1.1% completed, time steps left  52004
  Time to finish  49s,    1.1% completed, time steps left  52003
  Time to finish  49s,    1.1% completed, time steps left  52002
  Time to finish  49s,    1.1% completed, time steps left  52001
  Time to finish  49s,    1.1% completed, time steps left  52000
  Time to finish  49s,    1.1% completed, time steps left  51999
  Time to finish  49s,    1.1% completed, time steps left  51998
  Time to finish  49s,    1.1% completed, time steps left  51997
  Time to finish  49s,    1.1% completed, time steps left  51996
  Time to finish  49s,    1.1% completed, time steps left  51995
  Time to finish  49s,    1.1% completed, time steps left  51994
  Time to finish  49s,    1.1% completed, time steps left  51993
  Time to finish  49s,    1.1% completed, time steps left  51992
  Time to finish  49s,    1.1% completed, time steps left  51991
  Time to finish  49s,    1.1% completed, time steps left  51990
  Time to finish  49s,    1.1% completed, time steps left  51989
  Time to finish  49s,    1.1% completed, time steps left  51988
  Time to finish  49s,    1.1% completed, time steps left  51987
  Time to finish  49s,    1.1% completed, time steps left  51986
  Time to finish  49s,    1.1% completed, time steps left  51985
  Time to finish  49s,    1.1% completed, time steps left  51984
  Time to finish  49s,    1.1% completed, time steps left  51983
  Time to finish  49s,    1.1% completed, time steps left  51982
  Time to finish  49s,    1.1% completed, time steps left  51981
  Time to finish  49s,    1.1% completed, time steps left  51980
  Time to finish  49s,    1.1% completed, time steps left  51979
  Time to finish  49s,    1.1% completed, time steps left  51978
  Time to finish  49s,    1.1% completed, time steps left  51977
  Time to finish  49s,    1.1% completed, time steps left  51976
  Time to finish  49s,    1.1% completed, time steps left  51975
  Time to finish  49s,    1.1% completed, time steps left  51974
  Time to finish  49s,    1.1% completed, time steps left  51973
  Time to finish  48s,    1.1% completed, time steps left  51972
  Time to finish  49s,    1.1% completed, time steps left  51971
  Time to finish  49s,    1.1% completed, time steps left  51970
  Time to finish  49s,    1.1% completed, time steps left  51969
  Time to finish  48s,    1.1% completed, time steps left  51968
  Time to finish  48s,    1.1% completed, time steps left  51967
  Time to finish  48s,    1.1% completed, time steps left  51966
  Time to finish  48s,    1.1% completed, time steps left  51965
  Time to finish  48s,    1.1% completed, time steps left  51964
  Time to finish  48s,    1.1% completed, time steps left  51963
  Time to finish  48s,    1.1% completed, time steps left  51962
  Time to finish  48s,    1.1% completed, time steps left  51961
  Time to finish  48s,    1.1% completed, time steps left  51960
  Time to finish  48s,    1.1% completed, time steps left  51959
  Time to finish  48s,    1.1% completed, time steps left  51958
  Time to finish  48s,    1.1% completed, time steps left  51957
  Time to finish  48s,    1.1% completed, time steps left  51956
  Time to finish  48s,    1.2% completed, time steps left  51955
  Time to finish  48s,    1.2% completed, time steps left  51954
  Time to finish  48s,    1.2% completed, time steps left  51953
  Time to finish  48s,    1.2% completed, time steps left  51952
  Time to finish  48s,    1.2% completed, time steps left  51951
  Time to finish  48s,    1.2% completed, time steps left  51950
  Time to finish  48s,    1.2% completed, time steps left  51949
  Time to finish  48s,    1.2% completed, time steps left  51948
  Time to finish  48s,    1.2% completed, time steps left  51947
  Time to finish  48s,    1.2% completed, time steps left  51946
  Time to finish  48s,    1.2% completed, time steps left  51945
  Time to finish  48s,    1.2% completed, time steps left  51944
  Time to finish  48s,    1.2% completed, time steps left  51943
  Time to finish  48s,    1.2% completed, time steps left  51942
  Time to finish  48s,    1.2% completed, time steps left  51941
  Time to finish  48s,    1.2% completed, time steps left  51940
  Time to finish  48s,    1.2% completed, time steps left  51939
  Time to finish  48s,    1.2% completed, time steps left  51938
  Time to finish  48s,    1.2% completed, time steps left  51937
  Time to finish  48s,    1.2% completed, time steps left  51936
  Time to finish  48s,    1.2% completed, time steps left  51935
  Time to finish  48s,    1.2% completed, time steps left  51934
  Time to finish  48s,    1.2% completed, time steps left  51933
  Time to finish  48s,    1.2% completed, time steps left  51932
  Time to finish  48s,    1.2% completed, time steps left  51931
  Time to finish  48s,    1.2% completed, time steps left  51930
  Time to finish  48s,    1.2% completed, time steps left  51929
  Time to finish  48s,    1.2% completed, time steps left  51928
  Time to finish  48s,    1.2% completed, time steps left  51927
  Time to finish  48s,    1.2% completed, time steps left  51926
  Time to finish  48s,    1.2% completed, time steps left  51925
  Time to finish  48s,    1.2% completed, time steps left  51924
  Time to finish  48s,    1.2% completed, time steps left  51923
  Time to finish  48s,    1.2% completed, time steps left  51922
  Time to finish  48s,    1.2% completed, time steps left  51921
  Time to finish  48s,    1.2% completed, time steps left  51920
  Time to finish  48s,    1.2% completed, time steps left  51919
  Time to finish  48s,    1.2% completed, time steps left  51918
  Time to finish  48s,    1.2% completed, time steps left  51917
  Time to finish  48s,    1.2% completed, time steps left  51916
  Time to finish  48s,    1.2% completed, time steps left  51915
  Time to finish  48s,    1.2% completed, time steps left  51914
  Time to finish  48s,    1.2% completed, time steps left  51913
  Time to finish  48s,    1.2% completed, time steps left  51912
  Time to finish  48s,    1.2% completed, time steps left  51911
  Time to finish  48s,    1.2% completed, time steps left  51910
  Time to finish  48s,    1.2% completed, time steps left  51909
  Time to finish  48s,    1.2% completed, time steps left  51908
  Time to finish  48s,    1.2% completed, time steps left  51907
  Time to finish  48s,    1.2% completed, time steps left  51906
  Time to finish  48s,    1.2% completed, time steps left  51905
  Time to finish  48s,    1.2% completed, time steps left  51904
  Time to finish  48s,    1.2% completed, time steps left  51903
  Time to finish  47s,    1.3% completed, time steps left  51902
  Time to finish  47s,    1.3% completed, time steps left  51901
  Time to finish  47s,    1.3% completed, time steps left  51900
  Time to finish  48s,    1.3% completed, time steps left  51899
  Time to finish  48s,    1.3% completed, time steps left  51898
  Time to finish  48s,    1.3% completed, time steps left  51897
  Time to finish  48s,    1.3% completed, time steps left  51896
  Time to finish  47s,    1.3% completed, time steps left  51895
  Time to finish  47s,    1.3% completed, time steps left  51894
  Time to finish  47s,    1.3% completed, time steps left  51893
  Time to finish  47s,    1.3% completed, time steps left  51892
  Time to finish  47s,    1.3% completed, time steps left  51891
  Time to finish  47s,    1.3% completed, time steps left  51890
  Time to finish  47s,    1.3% completed, time steps left  51889
  Time to finish  47s,    1.3% completed, time steps left  51888
  Time to finish  47s,    1.3% completed, time steps left  51887
  Time to finish  47s,    1.3% completed, time steps left  51886
  Time to finish  47s,    1.3% completed, time steps left  51885
  Time to finish  47s,    1.3% completed, time steps left  51884
  Time to finish  47s,    1.3% completed, time steps left  51883
  Time to finish  47s,    1.3% completed, time steps left  51882
  Time to finish  47s,    1.3% completed, time steps left  51881
  Time to finish  47s,    1.3% completed, time steps left  51880
  Time to finish  47s,    1.3% completed, time steps left  51879
  Time to finish  47s,    1.3% completed, time steps left  51878
  Time to finish  47s,    1.3% completed, time steps left  51877
  Time to finish  47s,    1.3% completed, time steps left  51876
  Time to finish  47s,    1.3% completed, time steps left  51875
  Time to finish  47s,    1.3% completed, time steps left  51874
  Time to finish  47s,    1.3% completed, time steps left  51873
  Time to finish  47s,    1.3% completed, time steps left  51872
  Time to finish  47s,    1.3% completed, time steps left  51871
  Time to finish  47s,    1.3% completed, time steps left  51870
  Time to finish  47s,    1.3% completed, time steps left  51869
  Time to finish  47s,    1.3% completed, time steps left  51868
  Time to finish  47s,    1.3% completed, time steps left  51867
  Time to finish  47s,    1.3% completed, time steps left  51866
  Time to finish  47s,    1.3% completed, time steps left  51865
  Time to finish  47s,    1.3% completed, time steps left  51864
  Time to finish  47s,    1.3% completed, time steps left  51863
  Time to finish  47s,    1.3% completed, time steps left  51862
  Time to finish  47s,    1.3% completed, time steps left  51861
  Time to finish  47s,    1.3% completed, time steps left  51860
  Time to finish  47s,    1.3% completed, time steps left  51859
  Time to finish  47s,    1.3% completed, time steps left  51858
  Time to finish  47s,    1.3% completed, time steps left  51857
  Time to finish  47s,    1.3% completed, time steps left  51856
  Time to finish  46s,    1.3% completed, time steps left  51855
  Time to finish  46s,    1.3% completed, time steps left  51854
  Time to finish  46s,    1.3% completed, time steps left  51853
  Time to finish  46s,    1.3% completed, time steps left  51852
  Time to finish  47s,    1.3% completed, time steps left  51851
  Time to finish  47s,    1.4% completed, time steps left  51850
  Time to finish  47s,    1.4% completed, time steps left  51849
  Time to finish  46s,    1.4% completed, time steps left  51848
  Time to finish  46s,    1.4% completed, time steps left  51847
  Time to finish  46s,    1.4% completed, time steps left  51846
  Time to finish  46s,    1.4% completed, time steps left  51845
  Time to finish  46s,    1.4% completed, time steps left  51844
  Time to finish  46s,    1.4% completed, time steps left  51843
  Time to finish  46s,    1.4% completed, time steps left  51842
  Time to finish  46s,    1.4% completed, time steps left  51841
  Time to finish  46s,    1.4% completed, time steps left  51840
  Time to finish  46s,    1.4% completed, time steps left  51839
  Time to finish  46s,    1.4% completed, time steps left  51838
  Time to finish  46s,    1.4% completed, time steps left  51837
  Time to finish  46s,    1.4% completed, time steps left  51836
  Time to finish  46s,    1.4% completed, time steps left  51835
  Time to finish  46s,    1.4% completed, time steps left  51834
  Time to finish  46s,    1.4% completed, time steps left  51833
  Time to finish  46s,    1.4% completed, time steps left  51832
  Time to finish  46s,    1.4% completed, time steps left  51831
  Time to finish  46s,    1.4% completed, time steps left  51830
  Time to finish  46s,    1.4% completed, time steps left  51829
  Time to finish  46s,    1.4% completed, time steps left  51828
  Time to finish  46s,    1.4% completed, time steps left  51827
  Time to finish  46s,    1.4% completed, time steps left  51826
  Time to finish  46s,    1.4% completed, time steps left  51825
  Time to finish  46s,    1.4% completed, time steps left  51824
  Time to finish  46s,    1.4% completed, time steps left  51823
  Time to finish  46s,    1.4% completed, time steps left  51822
  Time to finish  46s,    1.4% completed, time steps left  51821
  Time to finish  46s,    1.4% completed, time steps left  51820
  Time to finish  46s,    1.4% completed, time steps left  51819
  Time to finish  46s,    1.4% completed, time steps left  51818
  Time to finish  46s,    1.4% completed, time steps left  51817
  Time to finish  46s,    1.4% completed, time steps left  51816
  Time to finish  46s,    1.4% completed, time steps left  51815
  Time to finish  46s,    1.4% completed, time steps left  51814
  Time to finish  46s,    1.4% completed, time steps left  51813
  Time to finish  46s,    1.4% completed, time steps left  51812
  Time to finish  46s,    1.4% completed, time steps left  51811
  Time to finish  46s,    1.4% completed, time steps left  51810
  Time to finish  46s,    1.4% completed, time steps left  51809
  Time to finish  46s,    1.4% completed, time steps left  51808
  Time to finish  46s,    1.4% completed, time steps left  51807
  Time to finish  46s,    1.4% completed, time steps left  51806
  Time to finish  46s,    1.4% completed, time steps left  51805
  Time to finish  46s,    1.4% completed, time steps left  51804
  Time to finish  49s,    1.4% completed, time steps left  51803
  Time to finish  49s,    1.4% completed, time steps left  51802
  Time to finish  49s,    1.4% completed, time steps left  51801
  Time to finish  49s,    1.4% completed, time steps left  51800
  Time to finish  49s,    1.4% completed, time steps left  51799
  Time to finish  49s,    1.4% completed, time steps left  51798
  Time to finish  49s,    1.5% completed, time steps left  51797
  Time to finish  49s,    1.5% completed, time steps left  51796
  Time to finish  49s,    1.5% completed, time steps left  51795
  Time to finish  48s,    1.5% completed, time steps left  51794
  Time to finish  48s,    1.5% completed, time steps left  51793
  Time to finish  48s,    1.5% completed, time steps left  51792
  Time to finish  48s,    1.5% completed, time steps left  51791
  Time to finish  48s,    1.5% completed, time steps left  51790
  Time to finish  48s,    1.5% completed, time steps left  51789
  Time to finish  48s,    1.5% completed, time steps left  51788
  Time to finish  48s,    1.5% completed, time steps left  51787
  Time to finish  48s,    1.5% completed, time steps left  51786
  Time to finish  48s,    1.5% completed, time steps left  51785
  Time to finish  48s,    1.5% completed, time steps left  51784
  Time to finish  48s,    1.5% completed, time steps left  51783
  Time to finish  48s,    1.5% completed, time steps left  51782
  Time to finish  48s,    1.5% completed, time steps left  51781
  Time to finish  48s,    1.5% completed, time steps left  51780
  Time to finish  48s,    1.5% completed, time steps left  51779
  Time to finish  48s,    1.5% completed, time steps left  51778
  Time to finish  48s,    1.5% completed, time steps left  51777
  Time to finish  48s,    1.5% completed, time steps left  51776
  Time to finish  48s,    1.5% completed, time steps left  51775
  Time to finish  48s,    1.5% completed, time steps left  51774
  Time to finish  48s,    1.5% completed, time steps left  51773
  Time to finish  48s,    1.5% completed, time steps left  51772
  Time to finish  48s,    1.5% completed, time steps left  51771
  Time to finish  48s,    1.5% completed, time steps left  51770
  Time to finish  48s,    1.5% completed, time steps left  51769
  Time to finish  48s,    1.5% completed, time steps left  51768
  Time to finish  48s,    1.5% completed, time steps left  51767
  Time to finish  48s,    1.5% completed, time steps left  51766
  Time to finish  48s,    1.5% completed, time steps left  51765
  Time to finish  48s,    1.5% completed, time steps left  51764
  Time to finish  48s,    1.5% completed, time steps left  51763
  Time to finish  48s,    1.5% completed, time steps left  51762
  Time to finish  48s,    1.5% completed, time steps left  51761
  Time to finish  48s,    1.5% completed, time steps left  51760
  Time to finish  48s,    1.5% completed, time steps left  51759
  Time to finish  48s,    1.5% completed, time steps left  51758
  Time to finish  48s,    1.5% completed, time steps left  51757
  Time to finish  48s,    1.5% completed, time steps left  51756
  Time to finish  48s,    1.5% completed, time steps left  51755
  Time to finish  48s,    1.5% completed, time steps left  51754
  Time to finish  48s,    1.5% completed, time steps left  51753
  Time to finish  48s,    1.5% completed, time steps left  51752
  Time to finish  48s,    1.5% completed, time steps left  51751
  Time to finish  48s,    1.5% completed, time steps left  51750
  Time to finish  47s,    1.5% completed, time steps left  51749
  Time to finish  47s,    1.5% completed, time steps left  51748
  Time to finish  47s,    1.5% completed, time steps left  51747
  Time to finish  47s,    1.5% completed, time steps left  51746
  Time to finish  47s,    1.6% completed, time steps left  51745
  Time to finish  47s,    1.6% completed, time steps left  51744
  Time to finish  47s,    1.6% completed, time steps left  51743
  Time to finish  47s,    1.6% completed, time steps left  51742
  Time to finish  47s,    1.6% completed, time steps left  51741
  Time to finish  47s,    1.6% completed, time steps left  51740
  Time to finish  47s,    1.6% completed, time steps left  51739
  Time to finish  47s,    1.6% completed, time steps left  51738
  Time to finish  47s,    1.6% completed, time steps left  51737
  Time to finish  47s,    1.6% completed, time steps left  51736
  Time to finish  47s,    1.6% completed, time steps left  51735
  Time to finish  47s,    1.6% completed, time steps left  51734
  Time to finish  47s,    1.6% completed, time steps left  51733
  Time to finish  47s,    1.6% completed, time steps left  51732
  Time to finish  47s,    1.6% completed, time steps left  51731
  Time to finish  47s,    1.6% completed, time steps left  51730
  Time to finish  47s,    1.6% completed, time steps left  51729
  Time to finish  47s,    1.6% completed, time steps left  51728
  Time to finish  47s,    1.6% completed, time steps left  51727
  Time to finish  47s,    1.6% completed, time steps left  51726
  Time to finish  47s,    1.6% completed, time steps left  51725
  Time to finish  47s,    1.6% completed, time steps left  51724
  Time to finish  47s,    1.6% completed, time steps left  51723
  Time to finish  47s,    1.6% completed, time steps left  51722
  Time to finish  47s,    1.6% completed, time steps left  51721
  Time to finish  47s,    1.6% completed, time steps left  51720
  Time to finish  47s,    1.6% completed, time steps left  51719
  Time to finish  47s,    1.6% completed, time steps left  51718
  Time to finish  47s,    1.6% completed, time steps left  51717
  Time to finish  47s,    1.6% completed, time steps left  51716
  Time to finish  47s,    1.6% completed, time steps left  51715
  Time to finish  47s,    1.6% completed, time steps left  51714
  Time to finish  47s,    1.6% completed, time steps left  51713
  Time to finish  47s,    1.6% completed, time steps left  51712
  Time to finish  47s,    1.6% completed, time steps left  51711
  Time to finish  47s,    1.6% completed, time steps left  51710
  Time to finish  47s,    1.6% completed, time steps left  51709
  Time to finish  47s,    1.6% completed, time steps left  51708
  Time to finish  47s,    1.6% completed, time steps left  51707
  Time to finish  47s,    1.6% completed, time steps left  51706
  Time to finish  47s,    1.6% completed, time steps left  51705
  Time to finish  47s,    1.6% completed, time steps left  51704
  Time to finish  47s,    1.6% completed, time steps left  51703
  Time to finish  47s,    1.6% completed, time steps left  51702
  Time to finish  47s,    1.6% completed, time steps left  51701
  Time to finish  47s,    1.6% completed, time steps left  51700
  Time to finish  47s,    1.6% completed, time steps left  51699
  Time to finish  47s,    1.6% completed, time steps left  51698
  Time to finish  47s,    1.6% completed, time steps left  51697
  Time to finish  47s,    1.6% completed, time steps left  51696
  Time to finish  47s,    1.6% completed, time steps left  51695
  Time to finish  47s,    1.6% completed, time steps left  51694
  Time to finish  47s,    1.6% completed, time steps left  51693
  Time to finish  47s,    1.7% completed, time steps left  51692
  Time to finish  47s,    1.7% completed, time steps left  51691
  Time to finish  47s,    1.7% completed, time steps left  51690
  Time to finish  47s,    1.7% completed, time steps left  51689
  Time to finish  47s,    1.7% completed, time steps left  51688
  Time to finish  47s,    1.7% completed, time steps left  51687
  Time to finish  47s,    1.7% completed, time steps left  51686
  Time to finish  47s,    1.7% completed, time steps left  51685
  Time to finish  47s,    1.7% completed, time steps left  51684
  Time to finish  47s,    1.7% completed, time steps left  51683
  Time to finish  47s,    1.7% completed, time steps left  51682
  Time to finish  47s,    1.7% completed, time steps left  51681
  Time to finish  47s,    1.7% completed, time steps left  51680
  Time to finish  47s,    1.7% completed, time steps left  51679
  Time to finish  46s,    1.7% completed, time steps left  51678
  Time to finish  46s,    1.7% completed, time steps left  51677
  Time to finish  46s,    1.7% completed, time steps left  51676
  Time to finish  46s,    1.7% completed, time steps left  51675
  Time to finish  46s,    1.7% completed, time steps left  51674
  Time to finish  46s,    1.7% completed, time steps left  51673
  Time to finish  46s,    1.7% completed, time steps left  51672
  Time to finish  46s,    1.7% completed, time steps left  51671
  Time to finish  46s,    1.7% completed, time steps left  51670
  Time to finish  46s,    1.7% completed, time steps left  51669
  Time to finish  46s,    1.7% completed, time steps left  51668
  Time to finish  46s,    1.7% completed, time steps left  51667
  Time to finish  46s,    1.7% completed, time steps left  51666
  Time to finish  46s,    1.7% completed, time steps left  51665
  Time to finish  46s,    1.7% completed, time steps left  51664
  Time to finish  46s,    1.7% completed, time steps left  51663
  Time to finish  46s,    1.7% completed, time steps left  51662
  Time to finish  46s,    1.7% completed, time steps left  51661
  Time to finish  46s,    1.7% completed, time steps left  51660
  Time to finish  47s,    1.7% completed, time steps left  51659
  Time to finish  47s,    1.7% completed, time steps left  51658
  Time to finish  47s,    1.7% completed, time steps left  51657
  Time to finish  47s,    1.7% completed, time steps left  51656
  Time to finish  47s,    1.7% completed, time steps left  51655
  Time to finish  47s,    1.7% completed, time steps left  51654
  Time to finish  47s,    1.7% completed, time steps left  51653
  Time to finish  47s,    1.7% completed, time steps left  51652
  Time to finish  47s,    1.7% completed, time steps left  51651
  Time to finish  47s,    1.7% completed, time steps left  51650
  Time to finish  47s,    1.7% completed, time steps left  51649
  Time to finish  47s,    1.7% completed, time steps left  51648
  Time to finish  47s,    1.7% completed, time steps left  51647
  Time to finish  47s,    1.7% completed, time steps left  51646
  Time to finish  47s,    1.7% completed, time steps left  51645
  Time to finish  47s,    1.7% completed, time steps left  51644
  Time to finish  47s,    1.7% completed, time steps left  51643
  Time to finish  47s,    1.7% completed, time steps left  51642
  Time to finish  47s,    1.7% completed, time steps left  51641
  Time to finish  47s,    1.8% completed, time steps left  51640
  Time to finish  47s,    1.8% completed, time steps left  51639
  Time to finish  47s,    1.8% completed, time steps left  51638
  Time to finish  47s,    1.8% completed, time steps left  51637
  Time to finish  47s,    1.8% completed, time steps left  51636
  Time to finish  47s,    1.8% completed, time steps left  51635
  Time to finish  47s,    1.8% completed, time steps left  51634
  Time to finish  47s,    1.8% completed, time steps left  51633
  Time to finish  47s,    1.8% completed, time steps left  51632
  Time to finish  47s,    1.8% completed, time steps left  51631
  Time to finish  47s,    1.8% completed, time steps left  51630
  Time to finish  47s,    1.8% completed, time steps left  51629
  Time to finish  47s,    1.8% completed, time steps left  51628
  Time to finish  47s,    1.8% completed, time steps left  51627
  Time to finish  47s,    1.8% completed, time steps left  51626
  Time to finish  47s,    1.8% completed, time steps left  51625
  Time to finish  47s,    1.8% completed, time steps left  51624
  Time to finish  47s,    1.8% completed, time steps left  51623
  Time to finish  47s,    1.8% completed, time steps left  51622
  Time to finish  47s,    1.8% completed, time steps left  51621
  Time to finish  47s,    1.8% completed, time steps left  51620
  Time to finish  47s,    1.8% completed, time steps left  51619
  Time to finish  47s,    1.8% completed, time steps left  51618
  Time to finish  47s,    1.8% completed, time steps left  51617
  Time to finish  47s,    1.8% completed, time steps left  51616
  Time to finish  47s,    1.8% completed, time steps left  51615
  Time to finish  47s,    1.8% completed, time steps left  51614
  Time to finish  47s,    1.8% completed, time steps left  51613
  Time to finish  47s,    1.8% completed, time steps left  51612
  Time to finish  47s,    1.8% completed, time steps left  51611
  Time to finish  47s,    1.8% completed, time steps left  51610
  Time to finish  47s,    1.8% completed, time steps left  51609
  Time to finish  47s,    1.8% completed, time steps left  51608
  Time to finish  47s,    1.8% completed, time steps left  51607
  Time to finish  47s,    1.8% completed, time steps left  51606
  Time to finish  47s,    1.8% completed, time steps left  51605
  Time to finish  47s,    1.8% completed, time steps left  51604
  Time to finish  47s,    1.8% completed, time steps left  51603
  Time to finish  47s,    1.8% completed, time steps left  51602
  Time to finish  47s,    1.8% completed, time steps left  51601
  Time to finish  47s,    1.8% completed, time steps left  51600
  Time to finish  47s,    1.8% completed, time steps left  51599
  Time to finish  47s,    1.8% completed, time steps left  51598
  Time to finish  47s,    1.8% completed, time steps left  51597
  Time to finish  47s,    1.8% completed, time steps left  51596
  Time to finish  47s,    1.8% completed, time steps left  51595
  Time to finish  47s,    1.8% completed, time steps left  51594
  Time to finish  47s,    1.8% completed, time steps left  51593
  Time to finish  47s,    1.8% completed, time steps left  51592
  Time to finish  47s,    1.8% completed, time steps left  51591
  Time to finish  47s,    1.8% completed, time steps left  51590
  Time to finish  47s,    1.8% completed, time steps left  51589
  Time to finish  47s,    1.8% completed, time steps left  51588
  Time to finish  47s,    1.9% completed, time steps left  51587
  Time to finish  47s,    1.9% completed, time steps left  51586
  Time to finish  47s,    1.9% completed, time steps left  51585
  Time to finish  47s,    1.9% completed, time steps left  51584
  Time to finish  47s,    1.9% completed, time steps left  51583
  Time to finish  47s,    1.9% completed, time steps left  51582
  Time to finish  47s,    1.9% completed, time steps left  51581
  Time to finish  47s,    1.9% completed, time steps left  51580
  Time to finish  47s,    1.9% completed, time steps left  51579
  Time to finish  47s,    1.9% completed, time steps left  51578
  Time to finish  47s,    1.9% completed, time steps left  51577
  Time to finish  47s,    1.9% completed, time steps left  51576
  Time to finish  47s,    1.9% completed, time steps left  51575
  Time to finish  47s,    1.9% completed, time steps left  51574
  Time to finish  47s,    1.9% completed, time steps left  51573
  Time to finish  47s,    1.9% completed, time steps left  51572
  Time to finish  47s,    1.9% completed, time steps left  51571
  Time to finish  47s,    1.9% completed, time steps left  51570
  Time to finish  47s,    1.9% completed, time steps left  51569
  Time to finish  47s,    1.9% completed, time steps left  51568
  Time to finish  47s,    1.9% completed, time steps left  51567
  Time to finish  47s,    1.9% completed, time steps left  51566
  Time to finish  47s,    1.9% completed, time steps left  51565
  Time to finish  47s,    1.9% completed, time steps left  51564
  Time to finish  47s,    1.9% completed, time steps left  51563
  Time to finish  47s,    1.9% completed, time steps left  51562
  Time to finish  47s,    1.9% completed, time steps left  51561
  Time to finish  47s,    1.9% completed, time steps left  51560
  Time to finish  47s,    1.9% completed, time steps left  51559
  Time to finish  47s,    1.9% completed, time steps left  51558
  Time to finish  47s,    1.9% completed, time steps left  51557
  Time to finish  47s,    1.9% completed, time steps left  51556
  Time to finish  47s,    1.9% completed, time steps left  51555
  Time to finish  47s,    1.9% completed, time steps left  51554
  Time to finish  47s,    1.9% completed, time steps left  51553
  Time to finish  47s,    1.9% completed, time steps left  51552
  Time to finish  47s,    1.9% completed, time steps left  51551
  Time to finish  47s,    1.9% completed, time steps left  51550
  Time to finish  47s,    1.9% completed, time steps left  51549
  Time to finish  47s,    1.9% completed, time steps left  51548
  Time to finish  47s,    1.9% completed, time steps left  51547
  Time to finish  47s,    1.9% completed, time steps left  51546
  Time to finish  47s,    1.9% completed, time steps left  51545
  Time to finish  47s,    1.9% completed, time steps left  51544
  Time to finish  47s,    1.9% completed, time steps left  51543
  Time to finish  47s,    1.9% completed, time steps left  51542
  Time to finish  47s,    1.9% completed, time steps left  51541
  Time to finish  47s,    1.9% completed, time steps left  51540
  Time to finish  47s,    1.9% completed, time steps left  51539
  Time to finish  47s,    1.9% completed, time steps left  51538
  Time to finish  47s,    1.9% completed, time steps left  51537
  Time to finish  47s,    1.9% completed, time steps left  51536
  Time to finish  47s,    2.0% completed, time steps left  51535
  Time to finish  47s,    2.0% completed, time steps left  51534
  Time to finish  47s,    2.0% completed, time steps left  51533
  Time to finish  47s,    2.0% completed, time steps left  51532
  Time to finish  47s,    2.0% completed, time steps left  51531
  Time to finish  47s,    2.0% completed, time steps left  51530
  Time to finish  47s,    2.0% completed, time steps left  51529
  Time to finish  47s,    2.0% completed, time steps left  51528
  Time to finish  47s,    2.0% completed, time steps left  51527
  Time to finish  47s,    2.0% completed, time steps left  51526
  Time to finish  47s,    2.0% completed, time steps left  51525
  Time to finish  47s,    2.0% completed, time steps left  51524
  Time to finish  47s,    2.0% completed, time steps left  51523
  Time to finish  47s,    2.0% completed, time steps left  51522
  Time to finish  47s,    2.0% completed, time steps left  51521
  Time to finish  47s,    2.0% completed, time steps left  51520
  Time to finish  47s,    2.0% completed, time steps left  51519
  Time to finish  47s,    2.0% completed, time steps left  51518
  Time to finish  47s,    2.0% completed, time steps left  51517
  Time to finish  47s,    2.0% completed, time steps left  51516
  Time to finish  47s,    2.0% completed, time steps left  51515
  Time to finish  47s,    2.0% completed, time steps left  51514
  Time to finish  47s,    2.0% completed, time steps left  51513
  Time to finish  47s,    2.0% completed, time steps left  51512
  Time to finish  47s,    2.0% completed, time steps left  51511
  Time to finish  47s,    2.0% completed, time steps left  51510
  Time to finish  47s,    2.0% completed, time steps left  51509
  Time to finish  47s,    2.0% completed, time steps left  51508
  Time to finish  47s,    2.0% completed, time steps left  51507
  Time to finish  47s,    2.0% completed, time steps left  51506
  Time to finish  47s,    2.0% completed, time steps left  51505
  Time to finish  47s,    2.0% completed, time steps left  51504
  Time to finish  47s,    2.0% completed, time steps left  51503
  Time to finish  47s,    2.0% completed, time steps left  51502
  Time to finish  47s,    2.0% completed, time steps left  51501
  Time to finish  47s,    2.0% completed, time steps left  51500
  Time to finish  47s,    2.0% completed, time steps left  51499
  Time to finish  47s,    2.0% completed, time steps left  51498
  Time to finish  47s,    2.0% completed, time steps left  51497
  Time to finish  47s,    2.0% completed, time steps left  51496
  Time to finish  47s,    2.0% completed, time steps left  51495
  Time to finish  47s,    2.0% completed, time steps left  51494
  Time to finish  47s,    2.0% completed, time steps left  51493
  Time to finish  47s,    2.0% completed, time steps left  51492
  Time to finish  47s,    2.0% completed, time steps left  51491
  Time to finish  47s,    2.0% completed, time steps left  51490
  Time to finish  47s,    2.0% completed, time steps left  51489
  Time to finish  47s,    2.0% completed, time steps left  51488
  Time to finish  47s,    2.0% completed, time steps left  51487
  Time to finish  47s,    2.0% completed, time steps left  51486
  Time to finish  47s,    2.0% completed, time steps left  51485
  Time to finish  46s,    2.0% completed, time steps left  51484
  Time to finish  46s,    2.0% completed, time steps left  51483
  Time to finish  46s,    2.1% completed, time steps left  51482
  Time to finish  46s,    2.1% completed, time steps left  51481
  Time to finish  46s,    2.1% completed, time steps left  51480
  Time to finish  47s,    2.1% completed, time steps left  51479
  Time to finish  47s,    2.1% completed, time steps left  51478
  Time to finish  47s,    2.1% completed, time steps left  51477
  Time to finish  47s,    2.1% completed, time steps left  51476
  Time to finish  47s,    2.1% completed, time steps left  51475
  Time to finish  46s,    2.1% completed, time steps left  51474
  Time to finish  47s,    2.1% completed, time steps left  51473
  Time to finish  47s,    2.1% completed, time steps left  51472
  Time to finish  46s,    2.1% completed, time steps left  51471
  Time to finish  46s,    2.1% completed, time steps left  51470
  Time to finish  46s,    2.1% completed, time steps left  51469
  Time to finish  46s,    2.1% completed, time steps left  51468
  Time to finish  47s,    2.1% completed, time steps left  51467
  Time to finish  47s,    2.1% completed, time steps left  51466
  Time to finish  47s,    2.1% completed, time steps left  51465
  Time to finish  47s,    2.1% completed, time steps left  51464
  Time to finish  47s,    2.1% completed, time steps left  51463
  Time to finish  46s,    2.1% completed, time steps left  51462
  Time to finish  46s,    2.1% completed, time steps left  51461
  Time to finish  46s,    2.1% completed, time steps left  51460
  Time to finish  46s,    2.1% completed, time steps left  51459
  Time to finish  46s,    2.1% completed, time steps left  51458
  Time to finish  46s,    2.1% completed, time steps left  51457
  Time to finish  46s,    2.1% completed, time steps left  51456
  Time to finish  47s,    2.1% completed, time steps left  51455
  Time to finish  46s,    2.1% completed, time steps left  51454
  Time to finish  46s,    2.1% completed, time steps left  51453
  Time to finish  46s,    2.1% completed, time steps left  51452
  Time to finish  46s,    2.1% completed, time steps left  51451
  Time to finish  46s,    2.1% completed, time steps left  51450
  Time to finish  46s,    2.1% completed, time steps left  51449
  Time to finish  46s,    2.1% completed, time steps left  51448
  Time to finish  46s,    2.1% completed, time steps left  51447
  Time to finish  46s,    2.1% completed, time steps left  51446
  Time to finish  46s,    2.1% completed, time steps left  51445
  Time to finish  46s,    2.1% completed, time steps left  51444
  Time to finish  46s,    2.1% completed, time steps left  51443
  Time to finish  46s,    2.1% completed, time steps left  51442
  Time to finish  46s,    2.1% completed, time steps left  51441
  Time to finish  46s,    2.1% completed, time steps left  51440
  Time to finish  46s,    2.1% completed, time steps left  51439
  Time to finish  46s,    2.1% completed, time steps left  51438
  Time to finish  46s,    2.1% completed, time steps left  51437
  Time to finish  46s,    2.1% completed, time steps left  51436
  Time to finish  46s,    2.1% completed, time steps left  51435
  Time to finish  46s,    2.1% completed, time steps left  51434
  Time to finish  46s,    2.1% completed, time steps left  51433
  Time to finish  46s,    2.1% completed, time steps left  51432
  Time to finish  46s,    2.1% completed, time steps left  51431
  Time to finish  46s,    2.1% completed, time steps left  51430
  Time to finish  46s,    2.2% completed, time steps left  51429
  Time to finish  46s,    2.2% completed, time steps left  51428
  Time to finish  46s,    2.2% completed, time steps left  51427
  Time to finish  46s,    2.2% completed, time steps left  51426
  Time to finish  46s,    2.2% completed, time steps left  51425
  Time to finish  46s,    2.2% completed, time steps left  51424
  Time to finish  46s,    2.2% completed, time steps left  51423
  Time to finish  46s,    2.2% completed, time steps left  51422
  Time to finish  46s,    2.2% completed, time steps left  51421
  Time to finish  46s,    2.2% completed, time steps left  51420
  Time to finish  46s,    2.2% completed, time steps left  51419
  Time to finish  46s,    2.2% completed, time steps left  51418
  Time to finish  46s,    2.2% completed, time steps left  51417
  Time to finish  46s,    2.2% completed, time steps left  51416
  Time to finish  46s,    2.2% completed, time steps left  51415
  Time to finish  46s,    2.2% completed, time steps left  51414
  Time to finish  46s,    2.2% completed, time steps left  51413
  Time to finish  46s,    2.2% completed, time steps left  51412
  Time to finish  46s,    2.2% completed, time steps left  51411
  Time to finish  46s,    2.2% completed, time steps left  51410
  Time to finish  46s,    2.2% completed, time steps left  51409
  Time to finish  46s,    2.2% completed, time steps left  51408
  Time to finish  47s,    2.2% completed, time steps left  51407
  Time to finish  47s,    2.2% completed, time steps left  51406
  Time to finish  47s,    2.2% completed, time steps left  51405
  Time to finish  47s,    2.2% completed, time steps left  51404
  Time to finish  47s,    2.2% completed, time steps left  51403
  Time to finish  47s,    2.2% completed, time steps left  51402
  Time to finish  47s,    2.2% completed, time steps left  51401
  Time to finish  47s,    2.2% completed, time steps left  51400
  Time to finish  47s,    2.2% completed, time steps left  51399
  Time to finish  47s,    2.2% completed, time steps left  51398
  Time to finish  47s,    2.2% completed, time steps left  51397
  Time to finish  47s,    2.2% completed, time steps left  51396
  Time to finish  47s,    2.2% completed, time steps left  51395
  Time to finish  47s,    2.2% completed, time steps left  51394
  Time to finish  47s,    2.2% completed, time steps left  51393
  Time to finish  47s,    2.2% completed, time steps left  51392
  Time to finish  47s,    2.2% completed, time steps left  51391
  Time to finish  47s,    2.2% completed, time steps left  51390
  Time to finish  47s,    2.2% completed, time steps left  51389
  Time to finish  47s,    2.2% completed, time steps left  51388
  Time to finish  47s,    2.2% completed, time steps left  51387
  Time to finish  47s,    2.2% completed, time steps left  51386
  Time to finish  47s,    2.2% completed, time steps left  51385
  Time to finish  47s,    2.2% completed, time steps left  51384
  Time to finish  47s,    2.2% completed, time steps left  51383
  Time to finish  47s,    2.2% completed, time steps left  51382
  Time to finish  47s,    2.2% completed, time steps left  51381
  Time to finish  47s,    2.2% completed, time steps left  51380
  Time to finish  47s,    2.2% completed, time steps left  51379
  Time to finish  47s,    2.2% completed, time steps left  51378
  Time to finish  47s,    2.3% completed, time steps left  51377
  Time to finish  47s,    2.3% completed, time steps left  51376
  Time to finish  47s,    2.3% completed, time steps left  51375
  Time to finish  47s,    2.3% completed, time steps left  51374
  Time to finish  47s,    2.3% completed, time steps left  51373
  Time to finish  47s,    2.3% completed, time steps left  51372
  Time to finish  47s,    2.3% completed, time steps left  51371
  Time to finish  47s,    2.3% completed, time steps left  51370
  Time to finish  47s,    2.3% completed, time steps left  51369
  Time to finish  47s,    2.3% completed, time steps left  51368
  Time to finish  47s,    2.3% completed, time steps left  51367
  Time to finish  47s,    2.3% completed, time steps left  51366
  Time to finish  47s,    2.3% completed, time steps left  51365
  Time to finish  47s,    2.3% completed, time steps left  51364
  Time to finish  47s,    2.3% completed, time steps left  51363
[...]
  Time to finish   0s,   99.4% completed, time steps left  310
  Time to finish   0s,   99.4% completed, time steps left  309
  Time to finish   0s,   99.4% completed, time steps left  308
  Time to finish   0s,   99.4% completed, time steps left  307
  Time to finish   0s,   99.4% completed, time steps left  306
  Time to finish   0s,   99.4% completed, time steps left  305
  Time to finish   0s,   99.4% completed, time steps left  304
  Time to finish   0s,   99.4% completed, time steps left  303
  Time to finish   0s,   99.4% completed, time steps left  302
  Time to finish   0s,   99.4% completed, time steps left  301
  Time to finish   0s,   99.4% completed, time steps left  300
  Time to finish   0s,   99.4% completed, time steps left  299
  Time to finish   0s,   99.4% completed, time steps left  298
  Time to finish   0s,   99.4% completed, time steps left  297
  Time to finish   0s,   99.4% completed, time steps left  296
  Time to finish   0s,   99.4% completed, time steps left  295
  Time to finish   0s,   99.4% completed, time steps left  294
  Time to finish   0s,   99.4% completed, time steps left  293
  Time to finish   0s,   99.4% completed, time steps left  292
  Time to finish   0s,   99.4% completed, time steps left  291
  Time to finish   0s,   99.4% completed, time steps left  290
  Time to finish   0s,   99.5% completed, time steps left  289
  Time to finish   0s,   99.5% completed, time steps left  288
  Time to finish   0s,   99.5% completed, time steps left  287
  Time to finish   0s,   99.5% completed, time steps left  286
  Time to finish   0s,   99.5% completed, time steps left  285
  Time to finish   0s,   99.5% completed, time steps left  284
  Time to finish   0s,   99.5% completed, time steps left  283
  Time to finish   0s,   99.5% completed, time steps left  282
  Time to finish   0s,   99.5% completed, time steps left  281
  Time to finish   0s,   99.5% completed, time steps left  280
  Time to finish   0s,   99.5% completed, time steps left  279
  Time to finish   0s,   99.5% completed, time steps left  278
  Time to finish   0s,   99.5% completed, time steps left  277
  Time to finish   0s,   99.5% completed, time steps left  276
  Time to finish   0s,   99.5% completed, time steps left  275
  Time to finish   0s,   99.5% completed, time steps left  274
  Time to finish   0s,   99.5% completed, time steps left  273
  Time to finish   0s,   99.5% completed, time steps left  272
  Time to finish   0s,   99.5% completed, time steps left  271
  Time to finish   0s,   99.5% completed, time steps left  270
  Time to finish   0s,   99.5% completed, time steps left  269
  Time to finish   0s,   99.5% completed, time steps left  268
  Time to finish   0s,   99.5% completed, time steps left  267
  Time to finish   0s,   99.5% completed, time steps left  266
  Time to finish   0s,   99.5% completed, time steps left  265
  Time to finish   0s,   99.5% completed, time steps left  264
  Time to finish   0s,   99.5% completed, time steps left  263
  Time to finish   0s,   99.5% completed, time steps left  262
  Time to finish   0s,   99.5% completed, time steps left  261
  Time to finish   0s,   99.5% completed, time steps left  260
  Time to finish   0s,   99.5% completed, time steps left  259
  Time to finish   0s,   99.5% completed, time steps left  258
  Time to finish   0s,   99.5% completed, time steps left  257
  Time to finish   0s,   99.5% completed, time steps left  256
  Time to finish   0s,   99.5% completed, time steps left  255
  Time to finish   0s,   99.5% completed, time steps left  254
  Time to finish   0s,   99.5% completed, time steps left  253
  Time to finish   0s,   99.5% completed, time steps left  252
  Time to finish   0s,   99.5% completed, time steps left  251
  Time to finish   0s,   99.5% completed, time steps left  250
  Time to finish   0s,   99.5% completed, time steps left  249
  Time to finish   0s,   99.5% completed, time steps left  248
  Time to finish   0s,   99.5% completed, time steps left  247
  Time to finish   0s,   99.5% completed, time steps left  246
  Time to finish   0s,   99.5% completed, time steps left  245
  Time to finish   0s,   99.5% completed, time steps left  244
  Time to finish   0s,   99.5% completed, time steps left  243
  Time to finish   0s,   99.5% completed, time steps left  242
  Time to finish   0s,   99.5% completed, time steps left  241
  Time to finish   0s,   99.5% completed, time steps left  240
  Time to finish   0s,   99.5% completed, time steps left  239
  Time to finish   0s,   99.5% completed, time steps left  238
  Time to finish   0s,   99.5% completed, time steps left  237
  Time to finish   0s,   99.6% completed, time steps left  236
  Time to finish   0s,   99.6% completed, time steps left  235
  Time to finish   0s,   99.6% completed, time steps left  234
  Time to finish   0s,   99.6% completed, time steps left  233
  Time to finish   0s,   99.6% completed, time steps left  232
  Time to finish   0s,   99.6% completed, time steps left  231
  Time to finish   0s,   99.6% completed, time steps left  230
  Time to finish   0s,   99.6% completed, time steps left  229
  Time to finish   0s,   99.6% completed, time steps left  228
  Time to finish   0s,   99.6% completed, time steps left  227
  Time to finish   0s,   99.6% completed, time steps left  226
  Time to finish   0s,   99.6% completed, time steps left  225
  Time to finish   0s,   99.6% completed, time steps left  224
  Time to finish   0s,   99.6% completed, time steps left  223
  Time to finish   0s,   99.6% completed, time steps left  222
  Time to finish   0s,   99.6% completed, time steps left  221
  Time to finish   0s,   99.6% completed, time steps left  220
  Time to finish   0s,   99.6% completed, time steps left  219
  Time to finish   0s,   99.6% completed, time steps left  218
  Time to finish   0s,   99.6% completed, time steps left  217
  Time to finish   0s,   99.6% completed, time steps left  216
  Time to finish   0s,   99.6% completed, time steps left  215
  Time to finish   0s,   99.6% completed, time steps left  214
  Time to finish   0s,   99.6% completed, time steps left  213
  Time to finish   0s,   99.6% completed, time steps left  212
  Time to finish   0s,   99.6% completed, time steps left  211
  Time to finish   0s,   99.6% completed, time steps left  210
  Time to finish   0s,   99.6% completed, time steps left  209
  Time to finish   0s,   99.6% completed, time steps left  208
  Time to finish   0s,   99.6% completed, time steps left  207
  Time to finish   0s,   99.6% completed, time steps left  206
  Time to finish   0s,   99.6% completed, time steps left  205
  Time to finish   0s,   99.6% completed, time steps left  204
  Time to finish   0s,   99.6% completed, time steps left  203
  Time to finish   0s,   99.6% completed, time steps left  202
  Time to finish   0s,   99.6% completed, time steps left  201
  Time to finish   0s,   99.6% completed, time steps left  200
  Time to finish   0s,   99.6% completed, time steps left  199
  Time to finish   0s,   99.6% completed, time steps left  198
  Time to finish   0s,   99.6% completed, time steps left  197
  Time to finish   0s,   99.6% completed, time steps left  196
  Time to finish   0s,   99.6% completed, time steps left  195
  Time to finish   0s,   99.6% completed, time steps left  194
  Time to finish   0s,   99.6% completed, time steps left  193
  Time to finish   0s,   99.6% completed, time steps left  192
  Time to finish   0s,   99.6% completed, time steps left  191
  Time to finish   0s,   99.6% completed, time steps left  190
  Time to finish   0s,   99.6% completed, time steps left  189
  Time to finish   0s,   99.6% completed, time steps left  188
  Time to finish   0s,   99.6% completed, time steps left  187
  Time to finish   0s,   99.6% completed, time steps left  186
  Time to finish   0s,   99.6% completed, time steps left  185
  Time to finish   0s,   99.6% completed, time steps left  184
  Time to finish   0s,   99.7% completed, time steps left  183
  Time to finish   0s,   99.7% completed, time steps left  182
  Time to finish   0s,   99.7% completed, time steps left  181
  Time to finish   0s,   99.7% completed, time steps left  180
  Time to finish   0s,   99.7% completed, time steps left  179
  Time to finish   0s,   99.7% completed, time steps left  178
  Time to finish   0s,   99.7% completed, time steps left  177
  Time to finish   0s,   99.7% completed, time steps left  176
  Time to finish   0s,   99.7% completed, time steps left  175
  Time to finish   0s,   99.7% completed, time steps left  174
  Time to finish   0s,   99.7% completed, time steps left  173
  Time to finish   0s,   99.7% completed, time steps left  172
  Time to finish   0s,   99.7% completed, time steps left  171
  Time to finish   0s,   99.7% completed, time steps left  170
  Time to finish   0s,   99.7% completed, time steps left  169
  Time to finish   0s,   99.7% completed, time steps left  168
  Time to finish   0s,   99.7% completed, time steps left  167
  Time to finish   0s,   99.7% completed, time steps left  166
  Time to finish   0s,   99.7% completed, time steps left  165
  Time to finish   0s,   99.7% completed, time steps left  164
  Time to finish   0s,   99.7% completed, time steps left  163
  Time to finish   0s,   99.7% completed, time steps left  162
  Time to finish   0s,   99.7% completed, time steps left  161
  Time to finish   0s,   99.7% completed, time steps left  160
  Time to finish   0s,   99.7% completed, time steps left  159
  Time to finish   0s,   99.7% completed, time steps left  158
  Time to finish   0s,   99.7% completed, time steps left  157
  Time to finish   0s,   99.7% completed, time steps left  156
  Time to finish   0s,   99.7% completed, time steps left  155
  Time to finish   0s,   99.7% completed, time steps left  154
  Time to finish   0s,   99.7% completed, time steps left  153
  Time to finish   0s,   99.7% completed, time steps left  152
  Time to finish   0s,   99.7% completed, time steps left  151
  Time to finish   0s,   99.7% completed, time steps left  150
  Time to finish   0s,   99.7% completed, time steps left  149
  Time to finish   0s,   99.7% completed, time steps left  148
  Time to finish   0s,   99.7% completed, time steps left  147
  Time to finish   0s,   99.7% completed, time steps left  146
  Time to finish   0s,   99.7% completed, time steps left  145
  Time to finish   0s,   99.7% completed, time steps left  144
  Time to finish   0s,   99.7% completed, time steps left  143
  Time to finish   0s,   99.7% completed, time steps left  142
  Time to finish   0s,   99.7% completed, time steps left  141
  Time to finish   0s,   99.7% completed, time steps left  140
  Time to finish   0s,   99.7% completed, time steps left  139
  Time to finish   0s,   99.7% completed, time steps left  138
  Time to finish   0s,   99.7% completed, time steps left  137
  Time to finish   0s,   99.7% completed, time steps left  136
  Time to finish   0s,   99.7% completed, time steps left  135
  Time to finish   0s,   99.7% completed, time steps left  134
  Time to finish   0s,   99.7% completed, time steps left  133
  Time to finish   0s,   99.7% completed, time steps left  132
  Time to finish   0s,   99.8% completed, time steps left  131
  Time to finish   0s,   99.8% completed, time steps left  130
  Time to finish   0s,   99.8% completed, time steps left  129
  Time to finish   0s,   99.8% completed, time steps left  128
  Time to finish   0s,   99.8% completed, time steps left  127
  Time to finish   0s,   99.8% completed, time steps left  126
  Time to finish   0s,   99.8% completed, time steps left  125
  Time to finish   0s,   99.8% completed, time steps left  124
  Time to finish   0s,   99.8% completed, time steps left  123
  Time to finish   0s,   99.8% completed, time steps left  122
  Time to finish   0s,   99.8% completed, time steps left  121
  Time to finish   0s,   99.8% completed, time steps left  120
  Time to finish   0s,   99.8% completed, time steps left  119
  Time to finish   0s,   99.8% completed, time steps left  118
  Time to finish   0s,   99.8% completed, time steps left  117
  Time to finish   0s,   99.8% completed, time steps left  116
  Time to finish   0s,   99.8% completed, time steps left  115
  Time to finish   0s,   99.8% completed, time steps left  114
  Time to finish   0s,   99.8% completed, time steps left  113
  Time to finish   0s,   99.8% completed, time steps left  112
  Time to finish   0s,   99.8% completed, time steps left  111
  Time to finish   0s,   99.8% completed, time steps left  110
  Time to finish   0s,   99.8% completed, time steps left  109
  Time to finish   0s,   99.8% completed, time steps left  108
  Time to finish   0s,   99.8% completed, time steps left  107
  Time to finish   0s,   99.8% completed, time steps left  106
  Time to finish   0s,   99.8% completed, time steps left  105
  Time to finish   0s,   99.8% completed, time steps left  104
  Time to finish   0s,   99.8% completed, time steps left  103
  Time to finish   0s,   99.8% completed, time steps left  102
  Time to finish   0s,   99.8% completed, time steps left  101
  Time to finish   0s,   99.8% completed, time steps left  100
  Time to finish   0s,   99.8% completed, time steps left  99
  Time to finish   0s,   99.8% completed, time steps left  98
  Time to finish   0s,   99.8% completed, time steps left  97
  Time to finish   0s,   99.8% completed, time steps left  96
  Time to finish   0s,   99.8% completed, time steps left  95
  Time to finish   0s,   99.8% completed, time steps left  94
  Time to finish   0s,   99.8% completed, time steps left  93
  Time to finish   0s,   99.8% completed, time steps left  92
  Time to finish   0s,   99.8% completed, time steps left  91
  Time to finish   0s,   99.8% completed, time steps left  90
  Time to finish   0s,   99.8% completed, time steps left  89
  Time to finish   0s,   99.8% completed, time steps left  88
  Time to finish   0s,   99.8% completed, time steps left  87
  Time to finish   0s,   99.8% completed, time steps left  86
  Time to finish   0s,   99.8% completed, time steps left  85
  Time to finish   0s,   99.8% completed, time steps left  84
  Time to finish   0s,   99.8% completed, time steps left  83
  Time to finish   0s,   99.8% completed, time steps left  82
  Time to finish   0s,   99.8% completed, time steps left  81
  Time to finish   0s,   99.8% completed, time steps left  80
  Time to finish   0s,   99.8% completed, time steps left  79
  Time to finish   0s,   99.9% completed, time steps left  78
  Time to finish   0s,   99.9% completed, time steps left  77
  Time to finish   0s,   99.9% completed, time steps left  76
  Time to finish   0s,   99.9% completed, time steps left  75
  Time to finish   0s,   99.9% completed, time steps left  74
  Time to finish   0s,   99.9% completed, time steps left  73
  Time to finish   0s,   99.9% completed, time steps left  72
  Time to finish   0s,   99.9% completed, time steps left  71
  Time to finish   0s,   99.9% completed, time steps left  70
  Time to finish   0s,   99.9% completed, time steps left  69
  Time to finish   0s,   99.9% completed, time steps left  68
  Time to finish   0s,   99.9% completed, time steps left  67
  Time to finish   0s,   99.9% completed, time steps left  66
  Time to finish   0s,   99.9% completed, time steps left  65
  Time to finish   0s,   99.9% completed, time steps left  64
  Time to finish   0s,   99.9% completed, time steps left  63
  Time to finish   0s,   99.9% completed, time steps left  62
  Time to finish   0s,   99.9% completed, time steps left  61
  Time to finish   0s,   99.9% completed, time steps left  60
  Time to finish   0s,   99.9% completed, time steps left  59
  Time to finish   0s,   99.9% completed, time steps left  58
  Time to finish   0s,   99.9% completed, time steps left  57
  Time to finish   0s,   99.9% completed, time steps left  56
  Time to finish   0s,   99.9% completed, time steps left  55
  Time to finish   0s,   99.9% completed, time steps left  54
  Time to finish   0s,   99.9% completed, time steps left  53
  Time to finish   0s,   99.9% completed, time steps left  52
  Time to finish   0s,   99.9% completed, time steps left  51
  Time to finish   0s,   99.9% completed, time steps left  50
  Time to finish   0s,   99.9% completed, time steps left  49
  Time to finish   0s,   99.9% completed, time steps left  48
  Time to finish   0s,   99.9% completed, time steps left  47
  Time to finish   0s,   99.9% completed, time steps left  46
  Time to finish   0s,   99.9% completed, time steps left  45
  Time to finish   0s,   99.9% completed, time steps left  44
  Time to finish   0s,   99.9% completed, time steps left  43
  Time to finish   0s,   99.9% completed, time steps left  42
  Time to finish   0s,   99.9% completed, time steps left  41
  Time to finish   0s,   99.9% completed, time steps left  40
  Time to finish   0s,   99.9% completed, time steps left  39
  Time to finish   0s,   99.9% completed, time steps left  38
  Time to finish   0s,   99.9% completed, time steps left  37
  Time to finish   0s,   99.9% completed, time steps left  36
  Time to finish   0s,   99.9% completed, time steps left  35
  Time to finish   0s,   99.9% completed, time steps left  34
  Time to finish   0s,   99.9% completed, time steps left  33
  Time to finish   0s,   99.9% completed, time steps left  32
  Time to finish   0s,   99.9% completed, time steps left  31
  Time to finish   0s,   99.9% completed, time steps left  30
  Time to finish   0s,   99.9% completed, time steps left  29
  Time to finish   0s,   99.9% completed, time steps left  28
  Time to finish   0s,   99.9% completed, time steps left  27
  Time to finish   0s,  100.0% completed, time steps left  26
  Time to finish   0s,  100.0% completed, time steps left  25
  Time to finish   0s,  100.0% completed, time steps left  24
  Time to finish   0s,  100.0% completed, time steps left  23
  Time to finish   0s,  100.0% completed, time steps left  22
  Time to finish   0s,  100.0% completed, time steps left  21
  Time to finish   0s,  100.0% completed, time steps left  20
  Time to finish   0s,  100.0% completed, time steps left  19
  Time to finish   0s,  100.0% completed, time steps left  18
  Time to finish   0s,  100.0% completed, time steps left  17
  Time to finish   0s,  100.0% completed, time steps left  16
  Time to finish   0s,  100.0% completed, time steps left  15
  Time to finish   0s,  100.0% completed, time steps left  14
  Time to finish   0s,  100.0% completed, time steps left  13
  Time to finish   0s,  100.0% completed, time steps left  12
  Time to finish   0s,  100.0% completed, time steps left  11
  Time to finish   0s,  100.0% completed, time steps left  10
  Time to finish   0s,  100.0% completed, time steps left  9
  Time to finish   0s,  100.0% completed, time steps left  8
  Time to finish   0s,  100.0% completed, time steps left  7
  Time to finish   0s,  100.0% completed, time steps left  6
  Time to finish   0s,  100.0% completed, time steps left  5
  Time to finish   0s,  100.0% completed, time steps left  4
  Time to finish   0s,  100.0% completed, time steps left  3
  Time to finish   0s,  100.0% completed, time steps left  2
  Time to finish   0s,  100.0% completed, time steps left  1
 
------------------------------------------------------------------------------
  FINISHED    Delft3D-FLOW
              runid      : col-hyd
              date, time : 2019-02-27, 16:09:53
*** WARNING Latitude of your model is 0 degrees, model located at equator
*** WARNING no stations and cross-sections defined; HIS-file not created !!
    0 errors and     2 warnings
returning to main program from domain col-hyd
------------------------------------------------------------------------------
D_Hydro [53.000565] <anonymous> >> d_hydro shutting down normally
