

--------------------------------------------------------------------
Delft3D-WAQ/SED/ECO (version 3.33.01)

Session started: 25 February 2019, 15:03

Current directory: D:\projects\IMPAQT\MALG\testbench\col-hyd

Importing hydrodynamic description file:
   D:\projects\IMPAQT\MALG\testbench\col-hyd\com-col-hyd.hyd
   --- other files will be imported from the
       same directory


scenario data changed!

Current directory: D:\projects\IMPAQT\MALG\testbench\tmp

Writing Delft3D-WAQ scenario file:
   tmp.scn

Writing Delft3D-WAQ input file:
   tmp.inp

scenario data changed!

Current directory: D:\projects\IMPAQT\MALG\testbench\tmp

Writing Delft3D-WAQ scenario file:
   tmp.scn

Writing Delft3D-WAQ input file:
   tmp.inp
